
*** ChampSim Multicore Out-of-Order Simulator ***

Warmup Instructions: 2000
Simulation Instructions: 200000
Number of CPUs: 1
LLC sets: 2048
LLC ways: 16
Off-chip DRAM Size: 4096 MB Channels: 1 Width: 64-bit Data Rate: 3200 MT/s

CPU 0 runs /usr/eda/cs259/prakashsatya/ChampSim/dpc3_traces/623.xalancbmk_s-700B.champsimtrace.xz
CPU 0 Bimodal branch predictor
Using TensorFlow backend.
---Trained

Using TensorFlow backend.
---Trained

Using TensorFlow backend.
---('Not Trained', -234286217409216)

Using TensorFlow backend.
---('Not Trained', 234286217403328)

Using TensorFlow backend.
---Trained

Using TensorFlow backend.
---Trained

Using TensorFlow backend.
---Trained

Using TensorFlow backend.
---Trained

Using TensorFlow backend.
---Trained

Using TensorFlow backend.
---Trained

Using TensorFlow backend.
---Trained

Using TensorFlow backend.
---Trained

Using TensorFlow backend.
---Trained

Using TensorFlow backend.
---('Not Trained', -234286217442048)

Using TensorFlow backend.
---('Not Trained', 234286217445184)

Using TensorFlow backend.
---Trained

Using TensorFlow backend.
---Trained

Using TensorFlow backend.
---Trained

Using TensorFlow backend.
---Trained

Using TensorFlow backend.
---Trained

Using TensorFlow backend.
---Trained

Using TensorFlow backend.
---Trained

Using TensorFlow backend.
---Trained

Using TensorFlow backend.
---Trained

Using TensorFlow backend.
---Trained

Using TensorFlow backend.
---('Not Trained', -234286217443968)

Using TensorFlow backend.
---Trained

Using TensorFlow backend.
---Trained

Using TensorFlow backend.
---Trained

Using TensorFlow backend.
---Trained

Using TensorFlow backend.
---('Not Trained', -234286217446080)

Using TensorFlow backend.
---('Not Trained', 234286217441856)

Using TensorFlow backend.
---Trained

Using TensorFlow backend.
---Trained

Using TensorFlow backend.
---Trained

Using TensorFlow backend.
---Trained

Using TensorFlow backend.
---('Not Trained', -234286217455168)

Using TensorFlow backend.
---('Not Trained', 234286217460736)

Using TensorFlow backend.
---Trained

Using TensorFlow backend.
---('Not Trained', -268126360205824)

Using TensorFlow backend.
---Trained

Using TensorFlow backend.
---Trained

Using TensorFlow backend.
---Trained

Using TensorFlow backend.
---Trained

Using TensorFlow backend.
---Trained

Using TensorFlow backend.
---Trained

Using TensorFlow backend.
---Trained

Using TensorFlow backend.
---Trained

Using TensorFlow backend.
---('Not Trained', 268126360148160)

Using TensorFlow backend.
---('Not Trained', -268126360145024)

Using TensorFlow backend.
---('Not Trained', 268126360157376)

Using TensorFlow backend.
---Trained

Using TensorFlow backend.
---Trained

Using TensorFlow backend.
---Trained

Using TensorFlow backend.
---Trained

Using TensorFlow backend.
---Trained

Using TensorFlow backend.
---Trained

Using TensorFlow backend.
---Trained

Using TensorFlow backend.
---('Not Trained', -268126360164800)

Using TensorFlow backend.
---Trained

Using TensorFlow backend.
---Trained

Using TensorFlow backend.
---('Not Trained', 268126360164864)

Using TensorFlow backend.
---('Not Trained', -268126360161472)

Using TensorFlow backend.
---('Not Trained', 268126360149056)

Using TensorFlow backend.
---('Not Trained', -268126360148992)

Using TensorFlow backend.
---Trained

Using TensorFlow backend.
---('Not Trained', 268126360150272)

Using TensorFlow backend.
---Trained

Using TensorFlow backend.
---Trained

Using TensorFlow backend.
---Trained

Using TensorFlow backend.
---Trained

Using TensorFlow backend.
---('Not Trained', -268126360147072)

Using TensorFlow backend.
---Trained

Using TensorFlow backend.
---Trained

Using TensorFlow backend.
---Trained

Using TensorFlow backend.
---Trained

Using TensorFlow backend.
---('Not Trained', 268126360142720)

Using TensorFlow backend.
---('Not Trained', -268126360139200)

Using TensorFlow backend.
---('Not Trained', 268126360139328)

Using TensorFlow backend.
---('Not Trained', -268126360134336)

Using TensorFlow backend.
---Trained

Using TensorFlow backend.
---('Not Trained', 25408)

Using TensorFlow backend.
---('Not Trained', 268126360152256)

Using TensorFlow backend.
---Trained

Using TensorFlow backend.
---Trained

Using TensorFlow backend.
---Trained

Using TensorFlow backend.
---Trained

Using TensorFlow backend.
---Trained

Using TensorFlow backend.
---Trained

Using TensorFlow backend.
---Trained

Using TensorFlow backend.
---Trained

Using TensorFlow backend.
---Trained

Using TensorFlow backend.
---Trained

Using TensorFlow backend.
---Trained

Using TensorFlow backend.
---Trained

Using TensorFlow backend.
---Trained

Using TensorFlow backend.
---Trained

Using TensorFlow backend.
---Trained

Using TensorFlow backend.
---Trained

Using TensorFlow backend.
---Trained

Using TensorFlow backend.
---Trained

Using TensorFlow backend.
---Trained

Using TensorFlow backend.
---Trained

Using TensorFlow backend.
---Trained

Using TensorFlow backend.
---Trained

Using TensorFlow backend.
---Trained

Using TensorFlow backend.
---Trained

Using TensorFlow backend.
---Trained

Using TensorFlow backend.
---Trained

Using TensorFlow backend.
---Trained

Using TensorFlow backend.
---Trained

Using TensorFlow backend.
---Trained

Using TensorFlow backend.
---Trained

Using TensorFlow backend.
---Trained

Using TensorFlow backend.
---Trained

Using TensorFlow backend.
---Trained

Using TensorFlow backend.
---Trained

Using TensorFlow backend.
---Trained

Using TensorFlow backend.
---Trained

Using TensorFlow backend.
---Trained

Using TensorFlow backend.
---Trained

Using TensorFlow backend.
---Trained

Using TensorFlow backend.
---Trained

Using TensorFlow backend.
---Trained

Using TensorFlow backend.
---Trained

Using TensorFlow backend.
---Trained

Using TensorFlow backend.
---Trained

Using TensorFlow backend.
---Trained

Using TensorFlow backend.
---Trained

Using TensorFlow backend.
---Trained

Using TensorFlow backend.
---Trained

Using TensorFlow backend.
---Trained

Using TensorFlow backend.
---Trained

Using TensorFlow backend.
---Trained

Using TensorFlow backend.
---Trained

Using TensorFlow backend.
---Trained

Using TensorFlow backend.
---Trained

Using TensorFlow backend.
---Trained

Using TensorFlow backend.
---Trained

Using TensorFlow backend.
---Trained

Using TensorFlow backend.
---Trained

Using TensorFlow backend.
---Trained

Using TensorFlow backend.
---Trained

Using TensorFlow backend.
---Trained

Using TensorFlow backend.
---Trained

Using TensorFlow backend.
---Trained

Using TensorFlow backend.
---Trained

Using TensorFlow backend.
---Trained


Warmup complete CPU 0 instructions: 2001 cycles: 1032 (Simulation time: 0 hr 14 min 30 sec) 

Using TensorFlow backend.
---[-12416, -30208, -9920, -13056, -17536, -26048]

Using TensorFlow backend.
---[-12416, -30208, -9920, -13056, -17536, -26048]

Using TensorFlow backend.
---[-12416, -30208, -9920, -13056, -17536, -26048]

Using TensorFlow backend.
---[-12416, -30208, -9920, -13056, -17536, -26048]

Using TensorFlow backend.
---[-12416, -30208, -9920, -13056, -17536, -26048]

Using TensorFlow backend.
---[-12416, -30208, -9920, -13056, -17536, -26048]

Using TensorFlow backend.
---[-12416, -30208, -9920, -13056, -17536, -26048]

Using TensorFlow backend.
---[-12416, -30208, -9920, -13056, -17536, -26048]

Using TensorFlow backend.
---[-12416, -30208, -9920, -13056, -17536, -26048]

Using TensorFlow backend.
---[-12416, -30208, -9920, -13056, -17536, -26048]

Using TensorFlow backend.
---[-12416, -30208, -9920, -13056, -17536, -26048]

Using TensorFlow backend.
---[-12416, -30208, -9920, -13056, -17536, -26048]

Using TensorFlow backend.
---[-12416, -30208, -9920, -13056, -17536, -26048]

Using TensorFlow backend.
---[-12416, -30208, -9920, -13056, -17536, -26048]

Using TensorFlow backend.
---[-12416, -30208, -9920, -13056, -17536, -26048]

Using TensorFlow backend.
---[-12416, -30208, -9920, -13056, -17536, -26048]

Using TensorFlow backend.
---[-12416, -30208, -9920, -13056, -17536, -26048]

Using TensorFlow backend.
---[-12416, -30208, -9920, -13056, -17536, -26048]

Using TensorFlow backend.
---[-12416, -30208, -9920, -13056, -17536, -26048]

Using TensorFlow backend.
---[-12416, -30208, -9920, -13056, -17536, -26048]

Using TensorFlow backend.
---[-12416, -30208, -9920, -13056, -17536, -26048]

Using TensorFlow backend.
---[-12416, -30208, -9920, -13056, -17536, -26048]

Using TensorFlow backend.
---[-12416, -30208, -9920, -13056, -17536, -26048]

Using TensorFlow backend.
---[-12416, -30208, -9920, -13056, -17536, -26048]

Using TensorFlow backend.
---[-12416, -30208, -9920, -13056, -17536, -26048]

Using TensorFlow backend.
---[-12416, -30208, -9920, -13056, -17536, -26048]

Using TensorFlow backend.
---[-12416, -30208, -9920, -13056, -17536, -26048]

Using TensorFlow backend.
---[-12416, -30208, -9920, -13056, -17536, -26048]

Using TensorFlow backend.
---[-12416, -30208, -9920, -13056, -17536, -26048]

Using TensorFlow backend.
---[-12416, -30208, -9920, -13056, -17536, -26048]

Using TensorFlow backend.
---[-12416, -30208, -9920, -13056, -17536, -26048]

Using TensorFlow backend.
---[-12416, -30208, -9920, -13056, -17536, -26048]

Using TensorFlow backend.
---[-12416, -30208, -9920, -13056, -17536, -26048]

Using TensorFlow backend.
---[-12416, -30208, -9920, -13056, -17536, -26048]

Using TensorFlow backend.
---[-12416, -30208, -9920, -13056, -17536, -26048]

Using TensorFlow backend.
---[-12416, -30208, -9920, -13056, -17536, -26048]

Using TensorFlow backend.
---[-12416, -30208, -9920, -13056, -17536, -26048]

Using TensorFlow backend.
---[-12416, -30208, -9920, -13056, -17536, -26048]

Using TensorFlow backend.
---[-12416, -30208, -9920, -13056, -17536, -26048]

Using TensorFlow backend.
---[-12416, -30208, -9920, -13056, -17536, -26048]

Using TensorFlow backend.
---[-12416, -30208, -9920, -13056, -17536, -26048]

Using TensorFlow backend.
---[-12416, -30208, -9920, -13056, -17536, -26048]

Using TensorFlow backend.
---[-12416, -30208, -9920, -13056, -17536, -26048]

Using TensorFlow backend.
---[-12416, -30208, -9920, -13056, -17536, -26048]

Using TensorFlow backend.
---[-12416, -30208, -9920, -13056, -17536, -26048]

Using TensorFlow backend.
---[-12416, -30208, -9920, -13056, -17536, -26048]

Using TensorFlow backend.
---[-12416, -30208, -9920, -13056, -17536, -26048]

Using TensorFlow backend.
---[-12416, -30208, -9920, -13056, -17536, -26048]

Using TensorFlow backend.
---[-12416, -30208, -9920, -13056, -17536, -26048]

Using TensorFlow backend.
---[-12416, -30208, -9920, -13056, -17536, -26048]

Using TensorFlow backend.
---[-12416, -30208, -9920, -13056, -17536, -26048]

Using TensorFlow backend.
---[-12416, -30208, -9920, -13056, -17536, -26048]

Using TensorFlow backend.
---[-12416, -30208, -9920, -13056, -17536, -26048]

Using TensorFlow backend.
---[-12416, -46400, -30208, -9920, -13056, -17536]

Using TensorFlow backend.
---[-12416, -46400, -30208, -9920, -13056, -17536]

Using TensorFlow backend.
---[-12416, -46400, -30208, -9920, -13056, -17536]

Using TensorFlow backend.
---[-12416, -46400, -30208, -9920, -13056, -17536]

Using TensorFlow backend.
---[-12416, -46400, -30208, -9920, -13056, -17536]

Using TensorFlow backend.
---[-12416, -46400, -30208, -9920, -13056, -17536]

Using TensorFlow backend.
---[-12416, -46400, -30208, -9920, -13056, -17536]

Using TensorFlow backend.
---[-12416, -46400, -30208, -9920, -13056, -17536]

Using TensorFlow backend.
---[-12416, -46400, -30208, -9920, -13056, -17536]

Using TensorFlow backend.
---[-12416, -46400, -30208, -9920, -13056, -17536]

Using TensorFlow backend.
---[-12416, -46400, -30208, -9920, -13056, -17536]

Using TensorFlow backend.
---[-12416, -46400, -30208, -9920, -13056, -17536]

Using TensorFlow backend.
---[-12416, -46400, -30208, -9920, -13056, -17536]

Using TensorFlow backend.
---[-12416, -46400, -30208, -9920, -13056, -17536]

Using TensorFlow backend.
---[-12416, -46400, -30208, -9920, -13056, -17536]

Using TensorFlow backend.
---[-12416, -46400, -30208, -9920, -13056, -17536]

Using TensorFlow backend.
---[-12416, -46400, -30208, -9920, -13056, -17536]

Using TensorFlow backend.
---[-12416, -46400, -30208, -9920, -13056, -17536]

Using TensorFlow backend.
---[-12416, -46400, -30208, -9920, -13056, -17536]

Using TensorFlow backend.
---[-12416, -46400, -30208, -9920, -13056, -17536]

Using TensorFlow backend.
---[-12416, -46400, -30208, -9920, -13056, -17536]

Using TensorFlow backend.
---[-12416, -46400, -30208, -9920, -13056, -17536]

Using TensorFlow backend.
---[-12416, -46400, -30208, -9920, -13056, -17536]

Using TensorFlow backend.
---[-12416, -46400, -30208, -9920, -13056, -17536]

Using TensorFlow backend.
---[-12416, -46400, -30208, -9920, -13056, -17536]

Using TensorFlow backend.
---[-12416, -46400, -30208, -9920, -13056, -17536]

Using TensorFlow backend.
---[-12416, -46400, -30208, -9920, -13056, -17536]

Using TensorFlow backend.
---[-12416, -46400, -30208, -9920, -13056, -17536]

Using TensorFlow backend.
---[-12416, -46400, -30208, -9920, -13056, -17536]

Using TensorFlow backend.
---[-12416, -46400, -30208, -9920, -13056, -17536]

Using TensorFlow backend.
---[-12416, -46400, -30208, -9920, -13056, -17536]

Using TensorFlow backend.
---[-12416, -46400, -30208, -9920, -13056, -17536]

Using TensorFlow backend.
---[-12416, -46400, -30208, -9920, -13056, -17536]

Using TensorFlow backend.
---[-12416, -46400, -30208, -9920, -13056, -17536]

Using TensorFlow backend.
---[-12416, -46400, -30208, -9920, -13056, -17536]

Using TensorFlow backend.
---[-12416, -46400, -30208, -9920, -13056, -17536]

Using TensorFlow backend.
---[-12416, -46400, -30208, -9920, -13056, -17536]

Using TensorFlow backend.
---[-12416, -46400, -30208, -9920, -13056, -17536]

Using TensorFlow backend.
---[-12416, -46400, -30208, -9920, -13056, -17536]

Using TensorFlow backend.
---[-12416, -46400, -30208, -9920, -13056, -17536]

Using TensorFlow backend.
---[-12416, -46400, -30208, -9920, -13056, -17536]

Using TensorFlow backend.
---[-12416, -46400, -30208, -9920, -13056, -17536]

Using TensorFlow backend.
---[-12416, -46400, -30208, -9920, -13056, -17536]

Using TensorFlow backend.
---[-12416, -46400, -30208, -9920, -13056, -17536]

Using TensorFlow backend.
---[-12416, -46400, -30208, -9920, -13056, -17536]

Using TensorFlow backend.
---[-12416, -46400, -30208, -9920, -13056, -17536]

Using TensorFlow backend.
---[-12416, -46400, -30208, -9920, -13056, -17536]

Using TensorFlow backend.
---[-12416, -46400, -30208, -9920, -13056, -17536]

Using TensorFlow backend.
---[-12416, -46400, -30208, -9920, -13056, -17536]

Using TensorFlow backend.
---[-12416, -46400, -30208, -9920, -13056, -17536]

Using TensorFlow backend.
---[-12416, -46400, -30208, -9920, -13056, -17536]

Using TensorFlow backend.
---[-12416, -46400, -30208, -9920, -13056, -17536]

Using TensorFlow backend.
---[-12416, -46400, -30208, -9920, -13056, -17536]

Using TensorFlow backend.
---[-12416, -46400, -30208, -9920, -13056, -17536]

Using TensorFlow backend.
---[-12416, -46400, -30208, -9920, -13056, -17536]

Using TensorFlow backend.
---[-12416, -46400, -30208, -9920, -13056, -17536]

Using TensorFlow backend.
---[-12416, -46400, -30208, -9920, -13056, -17536]

Using TensorFlow backend.
---[-12416, -46400, -30208, -9920, -13056, -17536]

Using TensorFlow backend.
---[-12416, -46400, -30208, -9920, -13056, -17536]

Using TensorFlow backend.
---[-12416, -46400, -30208, -9920, -13056, -17536]

Using TensorFlow backend.
---[-12416, -46400, -30208, -9920, -13056, -17536]

Using TensorFlow backend.
---[-12416, -46400, -30208, -9920, -13056, -17536]

Using TensorFlow backend.
---[-12416, -46400, -30208, -9920, -13056, -17536]

Using TensorFlow backend.
---[-12416, -46400, -30208, -9920, -13056, -17536]

Using TensorFlow backend.
---[-12416, -46400, -30208, -9920, -13056, -17536]

Using TensorFlow backend.
---[-12416, -46400, -30208, -9920, -13056, -17536]

Using TensorFlow backend.
---[-12416, -46400, -30208, -9920, -13056, -17536]

Using TensorFlow backend.
---[-12416, -46400, -30208, -9920, -13056, -17536]

Using TensorFlow backend.
---[-12416, -46400, -30208, -9920, -13056, -17536]

Using TensorFlow backend.
---[-12416, -46400, -30208, -9920, -13056, -17536]

Using TensorFlow backend.
---[-12416, -9920, -13056, -17536, -11264, -21184]

Using TensorFlow backend.
---[-12416, -46400, -30208, -9920, -13056, -17536]

Using TensorFlow backend.
---[-12416, -9920, -13056, -17536, -11264, -21184]

Using TensorFlow backend.
---[-12416, -30208, -9920, -13056, -17536, -26048]

Using TensorFlow backend.
---[-12416, -30208, -9920, -13056, -17536, -26048]

Using TensorFlow backend.
---[-12416, -30208, -9920, -13056, -17536, -26048]

Using TensorFlow backend.
---[-12416, -30208, -9920, -13056, -17536, -26048]

Using TensorFlow backend.
---[-12416, -46400, -30208, -9920, -13056, -17536]

Using TensorFlow backend.
---[-12416, -46400, -30208, -9920, -13056, -17536]

Using TensorFlow backend.
---[-12416, -46400, -30208, -9920, -13056, -17536]

Using TensorFlow backend.
---[47168, 62144, 57920, 47616, 46528, 32192]

Using TensorFlow backend.
---[47168, 57920, 47616, 46528, 32192, 53952]

Using TensorFlow backend.
---[47168, 47616, 46528, 32192, 53952, 26752]

Using TensorFlow backend.
---[47168, 47616, 46528, 32192, 53952, 26752]

Using TensorFlow backend.
---[-12416, 47168, -9920, -13056, -11264, 47616]

Using TensorFlow backend.
---[-12416, -9920, -13056, -17536, -11264, 32192]

Using TensorFlow backend.
---[-12416, -9920, -13056, -17536, -11264, -21184]

Using TensorFlow backend.
---[-12416, -46400, -30208, -9920, -13056, -17536]

Using TensorFlow backend.
---[-12416, -46400, -30208, -9920, -13056, -17536]

Using TensorFlow backend.
---[-12416, -30208, -9920, -13056, -17536, -26048]

Using TensorFlow backend.
---[-12416, -30208, -9920, -13056, -17536, -26048]

Using TensorFlow backend.
---[-12416, -30208, -9920, -13056, -17536, -26048]

Using TensorFlow backend.
---[-12416, -46400, -30208, -9920, -13056, -17536]

Using TensorFlow backend.
---[-12416, -46400, -30208, -9920, -13056, -17536]

Using TensorFlow backend.
---[-12416, -46400, -30208, -9920, -13056, -17536]

Using TensorFlow backend.
---[-12416, -9920, -13056, -17536, -11264, 32192]

Using TensorFlow backend.
---[-12416, -46400, -30208, -9920, -13056, -17536]

Using TensorFlow backend.
---[-12416, -9920, -13056, -17536, -11264, 32192]

Using TensorFlow backend.
---[-12416, -9920, -13056, -17536, -11264, 32192]

Using TensorFlow backend.
---[47168, -9920, -11264, 47616, 46528, 32192]

Using TensorFlow backend.
---[47168, 47616, 46528, 32192, 53952, 26752]

Using TensorFlow backend.
---[-12416, -46400, -30208, -9920, -13056, -17536]

Using TensorFlow backend.
---[-12416, -9920, -13056, -17536, -11264, -21184]

Using TensorFlow backend.
---[-12416, -9920, -13056, -17536, -26048, -11264]

Using TensorFlow backend.
---[-12416, -46400, -30208, -9920, -13056, -17536]

Using TensorFlow backend.
---[-12416, -46400, -30208, -9920, -13056, -17536]

Using TensorFlow backend.
---[-12416, -9920, -13056, -17536, -26048, -11264]

Using TensorFlow backend.
---[-12416, 47168, -9920, -13056, -11264, 47616]

Using TensorFlow backend.
---[-12416, -9920, -13056, -17536, -11264, 32192]

Using TensorFlow backend.
---[-12416, -9920, -13056, -17536, -26048, -11264]

Using TensorFlow backend.
---[-12416, -30208, -9920, -13056, -17536, -26048]

Using TensorFlow backend.
---[-12416, 47168, -9920, -13056, -11264, 47616]

Using TensorFlow backend.
---[-12416, -46400, -30208, -9920, -13056, -17536]

Using TensorFlow backend.
---[-12416, -46400, -30208, -9920, -13056, -17536]

Using TensorFlow backend.
---[-12416, -30208, -9920, -13056, -17536, -26048]

Using TensorFlow backend.
---[-12416, -30208, -9920, -13056, -17536, -26048]

Using TensorFlow backend.
---[-12416, -46400, -30208, -9920, -13056, -17536]

Using TensorFlow backend.
---[-12416, -9920, -13056, -17536, -26048, -11264]

Using TensorFlow backend.
---[-12416, -30208, -9920, -13056, -17536, -26048]

Using TensorFlow backend.
---[-12416, -30208, -9920, -13056, -17536, -26048]

Using TensorFlow backend.
---[-12416, -9920, -13056, -17536, -11264, -21184]

Using TensorFlow backend.
---[-12416, -9920, -13056, -17536, -26048, -11264]

Using TensorFlow backend.
---[-12416, -9920, -13056, -17536, -26048, -11264]

Using TensorFlow backend.
---[-12416, -46400, -30208, -9920, -13056, -17536]

Using TensorFlow backend.
---[-12416, -46400, -30208, -9920, -13056, -17536]

Using TensorFlow backend.
---[-12416, -30208, -9920, -13056, -17536, -26048]

Using TensorFlow backend.
---[-12416, -30208, -9920, -13056, -17536, -26048]

Using TensorFlow backend.
---[-12416, -30208, -9920, -13056, -17536, -26048]

Using TensorFlow backend.
---[-12416, -30208, -9920, -13056, -17536, -26048]

Using TensorFlow backend.
---[-12416, -30208, -9920, -13056, -17536, -26048]

Using TensorFlow backend.
---[-12416, -30208, -9920, -13056, -17536, -26048]

Using TensorFlow backend.
---[-12416, -9920, -13056, -17536, -26048, -11264]

Using TensorFlow backend.
---[-12416, -9920, -13056, -17536, -26048, -11264]

Using TensorFlow backend.
---[-12416, -9920, -13056, -17536, -11264, -21184]

Using TensorFlow backend.
---[-12416, -30208, -9920, -13056, -17536, -26048]

Using TensorFlow backend.
---[-12416, -30208, -9920, -13056, -17536, -26048]

Using TensorFlow backend.
---[47168, 57920, 47616, 46528, 32192, 53952]

Using TensorFlow backend.
---[47168, 57920, 47616, 46528, 32192, 53952]

Using TensorFlow backend.
---[-12416, -9920, -13056, -17536, -26048, -11264]

Using TensorFlow backend.
---[-12416, -9920, -13056, -17536, -26048, -11264]

Using TensorFlow backend.
---[-12416, -30208, -9920, -13056, -17536, -26048]

Using TensorFlow backend.
---[47168, 57920, 47616, 46528, 32192, 53952]

Using TensorFlow backend.
---[-12416, -46400, -30208, -9920, -13056, -17536]

Using TensorFlow backend.
---[-12416, -46400, -30208, -9920, -13056, -17536]

Using TensorFlow backend.
---[-12416, -46400, -30208, -9920, -13056, -17536]

Using TensorFlow backend.
---[-12416, -46400, -30208, -9920, -13056, -17536]

Using TensorFlow backend.
---[-12416, -46400, -30208, -9920, -13056, -17536]

Using TensorFlow backend.
---[-12416, -9920, -13056, -17536, -26048, -11264]

Using TensorFlow backend.
---[-12416, -46400, -30208, -9920, -13056, -17536]

Using TensorFlow backend.
---[-12416, -46400, -30208, -9920, -13056, -17536]

Using TensorFlow backend.
---[-12416, -46400, -30208, -9920, -13056, -17536]

Using TensorFlow backend.
---[-12416, -46400, -30208, -9920, -13056, -17536]

Using TensorFlow backend.
---[47168, 57920, 47616, 46528, 32192, 53952]

Using TensorFlow backend.
---[-12416, -9920, -13056, -17536, -26048, -11264]

Using TensorFlow backend.
---[-12416, -9920, -13056, -17536, -26048, -11264]

Using TensorFlow backend.
---[-12416, -9920, -13056, -17536, -26048, -11264]

Using TensorFlow backend.
---[-12416, -30208, -9920, -13056, -17536, -26048]

Using TensorFlow backend.
---[-12416, -30208, -9920, -13056, -17536, -26048]

Using TensorFlow backend.
---[47168, 62144, 57920, 47616, 46528, 32192]

Using TensorFlow backend.
---[-12416, -30208, -9920, -13056, -17536, -26048]

Using TensorFlow backend.
---[47168, 62144, 57920, 47616, 46528, 32192]

Using TensorFlow backend.
---[-12416, -9920, -13056, -17536, -26048, -11264]

Using TensorFlow backend.
---[-12416, -9920, -13056, -17536, -26048, -11264]

Using TensorFlow backend.
---[-12416, -30208, -9920, -13056, -17536, -26048]

Using TensorFlow backend.
---[-12416, -30208, -9920, -13056, -17536, -26048]

Using TensorFlow backend.
---[-12416, -9920, -13056, -17536, -26048, -11264]

Using TensorFlow backend.
---[-12416, -46400, -30208, -9920, -13056, -17536]

Using TensorFlow backend.
---[47168, 57920, 47616, 46528, 32192, 53952]

Using TensorFlow backend.
---[47168, 57920, 47616, 46528, 32192, 53952]

Using TensorFlow backend.
---[-12416, -9920, -13056, -17536, -11264, -21184]

Using TensorFlow backend.
---[47168, 47616, 46528, 32192, 53952, 26752]

Using TensorFlow backend.
---[-12416, -30208, -9920, -13056, -17536, -26048]

Using TensorFlow backend.
---[-12416, -30208, -9920, -13056, -17536, -26048]

Using TensorFlow backend.
---[-12416, -30208, -9920, -13056, -17536, -26048]

Using TensorFlow backend.
---[47168, 47616, 46528, 32192, 53952, 26752]

Using TensorFlow backend.
---[47168, 57920, 47616, 46528, 32192, 53952]

Using TensorFlow backend.
---[47168, 47616, 46528, 32192, 53952, 26752]

Using TensorFlow backend.
---[47168, 47616, 46528, 32192, 53952, 26752]

Using TensorFlow backend.
---[-12416, -9920, -13056, -17536, -11264, -21184]

Using TensorFlow backend.
---[47168, 57920, 47616, 46528, 32192, 53952]

Using TensorFlow backend.
---[-12416, 47168, -9920, -13056, -11264, 47616]

Using TensorFlow backend.
---[-12416, 47168, -9920, -13056, -11264, 47616]

Using TensorFlow backend.
---[-12416, -9920, -13056, -17536, -11264, 32192]

Using TensorFlow backend.
---[-12416, 47168, -9920, -13056, -11264, 47616]

Using TensorFlow backend.
---[-12416, -9920, -13056, -17536, -26048, -11264]

Using TensorFlow backend.
---[47168, 47616, 46528, 32192, 53952, 26752]

Using TensorFlow backend.
---[47168, 47616, 46528, 32192, 53952, 26752]

Using TensorFlow backend.
---[-12416, -9920, -13056, -17536, -26048, -11264]

Using TensorFlow backend.
---[-12416, -9920, -13056, -17536, -11264, 32192]

Using TensorFlow backend.
---[-12416, -30208, -9920, -13056, -17536, -26048]

Using TensorFlow backend.
---[-12416, -9920, -13056, -17536, -11264, -21184]

Using TensorFlow backend.
---[-12416, -30208, -9920, -13056, -17536, -26048]

Using TensorFlow backend.
---[-12416, -30208, -9920, -13056, -17536, -26048]

Using TensorFlow backend.
---[-12416, -46400, -30208, -9920, -13056, -17536]

Using TensorFlow backend.
---[-12416, -46400, -30208, -9920, -13056, -17536]

Using TensorFlow backend.
---[-12416, -30208, -9920, -13056, -17536, -26048]

Using TensorFlow backend.
---[-12416, -30208, -9920, -13056, -17536, -26048]

Using TensorFlow backend.
---[-12416, -30208, -9920, -13056, -17536, -26048]

Using TensorFlow backend.
---[-12416, -30208, -9920, -13056, -17536, -26048]

Using TensorFlow backend.
---[-12416, -9920, -13056, -17536, -26048, -11264]

Using TensorFlow backend.
---[-12416, -9920, -13056, -17536, -26048, -11264]

Using TensorFlow backend.
---[-12416, -30208, -9920, -13056, -17536, -26048]

Using TensorFlow backend.
---[-12416, -30208, -9920, -13056, -17536, -26048]

Using TensorFlow backend.
---[-12416, -30208, -9920, -13056, -17536, -26048]

Using TensorFlow backend.
---[-12416, -30208, -9920, -13056, -17536, -26048]

Using TensorFlow backend.
---[-12416, -30208, -9920, -13056, -17536, -26048]

Using TensorFlow backend.
---[-12416, -30208, -9920, -13056, -17536, -26048]

Using TensorFlow backend.
---[-12416, -30208, -9920, -13056, -17536, -26048]

Using TensorFlow backend.
---[-12416, -9920, -13056, -17536, -26048, -11264]

Using TensorFlow backend.
---[-12416, -30208, -9920, -13056, -17536, -26048]

Using TensorFlow backend.
---[-12416, -46400, -30208, -9920, -13056, -17536]

Using TensorFlow backend.
---[-12416, -46400, -30208, -9920, -13056, -17536]

Using TensorFlow backend.
---[47168, 57920, 47616, 46528, 32192, 53952]

Using TensorFlow backend.
---[47168, 57920, 47616, 46528, 32192, 53952]

Using TensorFlow backend.
---[-12416, -46400, -30208, -9920, -13056, -17536]

Using TensorFlow backend.
---[-12416, -30208, -9920, -13056, -17536, -26048]

Using TensorFlow backend.
---[-12416, -46400, -30208, -9920, -13056, -17536]

Using TensorFlow backend.
---[-12416, -46400, -30208, -9920, -13056, -17536]

Using TensorFlow backend.
---[-12416, -46400, -30208, -9920, -13056, -17536]

Using TensorFlow backend.
---[-12416, -46400, -30208, -9920, -13056, -17536]

Using TensorFlow backend.
---[-12416, -46400, -30208, -9920, -13056, -17536]

Using TensorFlow backend.
---[-12416, -46400, -30208, -9920, -13056, -17536]

Using TensorFlow backend.
---[-12416, -46400, -30208, -9920, -13056, -17536]

Using TensorFlow backend.
---[47168, 57920, 47616, 46528, 32192, 53952]

Using TensorFlow backend.
---[-12416, -30208, -9920, -13056, -17536, -26048]

Using TensorFlow backend.
---[-12416, -9920, -13056, -17536, -26048, -11264]

Using TensorFlow backend.
---[-12416, -30208, -9920, -13056, -17536, -26048]

Using TensorFlow backend.
---[-12416, -30208, -9920, -13056, -17536, -26048]

Using TensorFlow backend.
---[-12416, -30208, -9920, -13056, -17536, -26048]

Using TensorFlow backend.
---[47168, 57920, 47616, 46528, 32192, 53952]

Using TensorFlow backend.
---[-12416, -46400, -30208, -9920, -13056, -17536]

Using TensorFlow backend.
---[-12416, -9920, -13056, -17536, -26048, -11264]

Using TensorFlow backend.
---[47168, 47616, 46528, 32192, 53952, 26752]

Using TensorFlow backend.
---[-12416, -30208, -9920, -13056, -17536, -26048]

Using TensorFlow backend.
---[-12416, -9920, -13056, -17536, -26048, -11264]

Using TensorFlow backend.
---[-12416, -9920, -13056, -17536, -26048, -11264]

Using TensorFlow backend.
---[47168, 57920, 47616, 46528, 32192, 61888]

Using TensorFlow backend.
---[-12416, -46400, -30208, -9920, -13056, -17536]

Using TensorFlow backend.
---[47168, 57920, 47616, 46528, 32192, 53952]

Using TensorFlow backend.
---[47168, 57920, 47616, 46528, 32192, 53952]

Using TensorFlow backend.
---[-12416, -9920, -13056, -17536, -26048, -11264]

Using TensorFlow backend.
---[-12416, -30208, -9920, -13056, -17536, -26048]

Using TensorFlow backend.
---[-12416, -30208, -9920, -13056, -17536, -26048]

Using TensorFlow backend.
---[-12416, -30208, -9920, -13056, -17536, -26048]

Using TensorFlow backend.
---[-12416, -30208, -9920, -13056, -17536, -26048]

Using TensorFlow backend.
---[-12416, -30208, -9920, -13056, -17536, -26048]

Using TensorFlow backend.
---[47168, 47616, 46528, 32192, 53952, 26752]

Using TensorFlow backend.
---[-12416, 47168, -9920, -13056, -11264, 47616]

Using TensorFlow backend.
---[47168, 62144, 57920, 47616, 46528, 32192]

Using TensorFlow backend.
---[47168, 47616, 46528, 32192, 53952, 26752]

Using TensorFlow backend.
---[-12416, -30208, -9920, -13056, -17536, -26048]

Using TensorFlow backend.
---[-12416, 47168, -9920, -13056, -17536, -11264]

Using TensorFlow backend.
---[47168, 47616, 46528, 32192, 53952, 26752]

Using TensorFlow backend.
---[47168, 47616, 46528, 32192, 53952, 26752]

Using TensorFlow backend.
---[-12416, 47168, -9920, -13056, -17536, -11264]

Using TensorFlow backend.
---[47168, 47616, 46528, 32192, 53952, 26752]

Using TensorFlow backend.
---[47168, 47616, 46528, 32192, 53952, 26752]

Using TensorFlow backend.
---[47168, 57920, 47616, 46528, 32192, 53952]

Using TensorFlow backend.
---[-12416, -9920, -13056, -17536, -11264, -21184]

Using TensorFlow backend.
---[47168, 62144, 57920, 47616, 46528, 32192]

Using TensorFlow backend.
---[-12416, -30208, -9920, -13056, -17536, -26048]

Using TensorFlow backend.
---[-12416, -30208, -9920, -13056, -17536, -26048]

Using TensorFlow backend.
---[47168, 57920, 47616, 46528, 32192, 53952]

Using TensorFlow backend.
---[47168, 57920, 47616, 46528, 32192, 53952]

Using TensorFlow backend.
---[47168, 57920, 47616, 46528, 32192, 53952]

Using TensorFlow backend.
---[-12416, -30208, -9920, -13056, -17536, -26048]

Using TensorFlow backend.
---[-12416, -30208, -9920, -13056, -17536, -26048]

Using TensorFlow backend.
---[47168, 57920, 47616, 46528, 32192, 53952]

Using TensorFlow backend.
---[-12416, -46400, -30208, -9920, -13056, -17536]

Using TensorFlow backend.
---[47168, 57920, 47616, 46528, 32192, 53952]

Using TensorFlow backend.
---[-12416, -46400, -30208, -9920, -13056, -17536]

Using TensorFlow backend.
---[-12416, -46400, -30208, -9920, -13056, -17536]

Using TensorFlow backend.
---[-12416, -9920, -13056, -17536, -11264, -21184]

Using TensorFlow backend.
---[-12416, -9920, -13056, -17536, -11264, -21184]

Using TensorFlow backend.
---[47168, 47616, 46528, 32192, 53952, 26752]

Using TensorFlow backend.
---[-12416, -9920, -13056, -17536, -11264, -21184]

Using TensorFlow backend.
---[47168, 47616, 46528, 32192, 53952, 26752]

Using TensorFlow backend.
---[-12416, -9920, -13056, -17536, -11264, -21184]

Using TensorFlow backend.
---[-12416, -9920, -13056, -17536, -11264, -21184]

Using TensorFlow backend.
---[-12416, -9920, -13056, -17536, -11264, -21184]

Using TensorFlow backend.
---[-12416, -9920, -13056, -17536, -26048, -11264]

Using TensorFlow backend.
---[-12416, 47168, -9920, -13056, -11264, 47616]

Using TensorFlow backend.
---[-12416, -30208, -9920, -13056, -17536, -26048]

Using TensorFlow backend.
---[47168, -9920, -11264, 47616, 46528, 32192]

Using TensorFlow backend.
---[-12416, -9920, -13056, -17536, -11264, 32192]

Using TensorFlow backend.
---[-12416, -46400, -30208, -9920, -13056, -17536]

Using TensorFlow backend.
---[-12416, 47168, -9920, -13056, -11264, 47616]

Using TensorFlow backend.
---[-12416, -30208, -9920, -13056, -17536, -26048]

Using TensorFlow backend.
---[-12416, -9920, -13056, -17536, -26048, -11264]

Using TensorFlow backend.
---[-12416, -9920, -13056, -17536, -11264, -21184]

Using TensorFlow backend.
---[-12416, -9920, -13056, -17536, -26048, -11264]

Using TensorFlow backend.
---[-12416, -9920, -13056, -17536, -26048, -11264]

Using TensorFlow backend.
---[47168, 47616, 46528, 32192, 53952, 26752]

Using TensorFlow backend.
---[-12416, -9920, -13056, -17536, -26048, -11264]

Using TensorFlow backend.
---[-12416, -9920, -13056, -17536, -26048, -11264]

Using TensorFlow backend.
---[-12416, -9920, -13056, -17536, -11264, -21184]

Using TensorFlow backend.
---[-12416, 47168, -9920, -13056, -11264, 47616]

Using TensorFlow backend.
---[-12416, -9920, -13056, -17536, -11264, 32192]

Using TensorFlow backend.
---[-12416, -9920, -13056, -17536, -11264, -21184]

Using TensorFlow backend.
---[-12416, -30208, -9920, -13056, -17536, -26048]

Using TensorFlow backend.
---[-12416, -9920, -13056, -17536, -26048, -11264]

Using TensorFlow backend.
---[-12416, -9920, -13056, -17536, -26048, -11264]

Using TensorFlow backend.
---[-12416, -9920, -13056, -17536, -26048, -11264]

Using TensorFlow backend.
---[47168, 57920, 47616, 46528, 32192, 53952]

Using TensorFlow backend.
---[-12416, -9920, -13056, -17536, -26048, -11264]

Using TensorFlow backend.
---[-12416, -30208, -9920, -13056, -17536, -26048]

Using TensorFlow backend.
---[-12416, -46400, -30208, -9920, -13056, -17536]

Using TensorFlow backend.
---[-12416, -46400, -30208, -9920, -13056, -17536]

Using TensorFlow backend.
---[47168, 57920, 47616, 46528, 32192, 53952]

Using TensorFlow backend.
---[-12416, -46400, -30208, -9920, -13056, -17536]

Using TensorFlow backend.
---[47168, 57920, 47616, 46528, 32192, 53952]

Using TensorFlow backend.
---[-12416, -30208, -9920, -13056, -17536, -26048]

Using TensorFlow backend.
---[-12416, -30208, -9920, -13056, -17536, -26048]

Using TensorFlow backend.
---[-12416, -46400, -30208, -9920, -13056, -17536]

Using TensorFlow backend.
---[-12416, -46400, -30208, -9920, -13056, -17536]

Using TensorFlow backend.
---[-12416, -46400, -30208, -9920, -13056, -17536]

Using TensorFlow backend.
---[-12416, -30208, -9920, -13056, -17536, -26048]

Using TensorFlow backend.
---[-12416, -30208, -9920, -13056, -17536, -26048]

Using TensorFlow backend.
---[-12416, -9920, -13056, -17536, -26048, -11264]

Using TensorFlow backend.
---[-12416, -46400, -30208, -9920, -13056, -17536]

Using TensorFlow backend.
---[-12416, -46400, -30208, -9920, -13056, -17536]

Using TensorFlow backend.
---[-12416, -9920, -13056, -17536, -26048, -11264]

Using TensorFlow backend.
---[-12416, -46400, -30208, -9920, -13056, -17536]

Using TensorFlow backend.
---[-12416, -30208, -9920, -13056, -17536, -26048]

Using TensorFlow backend.
---[-12416, -30208, -9920, -13056, -17536, -26048]

Using TensorFlow backend.
---[-12416, 47168, -9920, -13056, -11264, 47616]

Using TensorFlow backend.
---[-12416, 47168, -9920, -13056, -11264, 47616]

Using TensorFlow backend.
---[-12416, -30208, -9920, -13056, -17536, -26048]

Using TensorFlow backend.
---[-12416, 47168, -9920, -13056, -11264, 47616]

Using TensorFlow backend.
---[-12416, -46400, -30208, -9920, -13056, -17536]

Using TensorFlow backend.
---[47168, 62144, 57920, 47616, 46528, 32192]

Using TensorFlow backend.
---[47168, 62144, 57920, 47616, 46528, 32192]

Using TensorFlow backend.
---[47168, 62144, 57920, 47616, 46528, 32192]

Using TensorFlow backend.
---[-12416, -46400, -30208, -9920, -13056, -17536]

Using TensorFlow backend.
---[47168, 57920, 47616, 46528, 32192, 53952]

Using TensorFlow backend.
---[47168, 57920, 47616, 46528, 32192, 53952]

Using TensorFlow backend.
---[-12416, 47168, -9920, -13056, -11264, 47616]

Using TensorFlow backend.
---[-12416, -9920, -13056, -17536, -26048, -11264]

Using TensorFlow backend.
---[-12416, -46400, -30208, -9920, -13056, -17536]

Using TensorFlow backend.
---[47168, 62144, 57920, 47616, 46528, 32192]

Using TensorFlow backend.
---[47168, 47616, 46528, 32192, 53952, 26752]

Using TensorFlow backend.
---[-12416, 47168, -9920, -13056, -11264, 47616]

Using TensorFlow backend.
---[-12416, -30208, -9920, -13056, -17536, -26048]

Using TensorFlow backend.
---[-12416, -30208, -9920, -13056, -17536, -26048]

Using TensorFlow backend.
---[-12416, -46400, -30208, -9920, -13056, -17536]

Using TensorFlow backend.
---[-12416, -30208, -9920, -13056, -17536, -26048]

Using TensorFlow backend.
---[47168, -9920, -11264, 47616, 46528, 32192]

Using TensorFlow backend.
---[47168, -9920, -11264, 47616, 46528, 32192]

Using TensorFlow backend.
---[-12416, -46400, -30208, -9920, -13056, -17536]

Using TensorFlow backend.
---[47168, -9920, 47616, 46528, 32192, 53952]

Using TensorFlow backend.
---[-12416, -9920, -13056, -17536, -11264, 32192]

Using TensorFlow backend.
---[-12416, -9920, -13056, -17536, -11264, -21184]

Using TensorFlow backend.
---[-12416, -9920, -13056, -17536, -11264, 32192]

Using TensorFlow backend.
---[47168, -9920, -11264, 47616, 46528, 32192]

Using TensorFlow backend.
---[-12416, -9920, -13056, -17536, -26048, -11264]

Using TensorFlow backend.
---[47168, -9920, -11264, 47616, 46528, 32192]

Using TensorFlow backend.
---[-12416, -30208, -9920, -13056, -17536, -26048]

Using TensorFlow backend.
---[47168, 57920, 47616, 46528, 32192, 53952]

Using TensorFlow backend.
---[-12416, -46400, -30208, -9920, -13056, -17536]

Using TensorFlow backend.
---[-12416, -9920, -13056, -17536, -26048, -11264]

Using TensorFlow backend.
---[-12416, -46400, -30208, -9920, -13056, -17536]

Using TensorFlow backend.
---[-12416, -46400, -30208, -9920, -13056, -17536]

Using TensorFlow backend.
---[-12416, -46400, -30208, -9920, -13056, -17536]

Using TensorFlow backend.
---[-12416, -9920, -13056, -17536, -26048, -11264]

Using TensorFlow backend.
---[-12416, -46400, -30208, -9920, -13056, -17536]

Using TensorFlow backend.
---[-12416, -9920, -13056, -17536, -26048, -11264]

Using TensorFlow backend.
---[-12416, -46400, -30208, -9920, -13056, -17536]

Using TensorFlow backend.
---[-12416, -46400, -30208, -9920, -13056, -17536]

Using TensorFlow backend.
---[-12416, -46400, -30208, -9920, -13056, -17536]

Using TensorFlow backend.
---[-12416, -9920, -13056, -17536, -26048, -11264]

Using TensorFlow backend.
---[-12416, -46400, -30208, -9920, -13056, -17536]

Using TensorFlow backend.
---[-12416, -46400, -30208, -9920, -13056, -17536]

Using TensorFlow backend.
---[-12416, -46400, -30208, -9920, -13056, -17536]

Using TensorFlow backend.
---[-12416, -46400, -30208, -9920, -13056, -17536]

Using TensorFlow backend.
---[-12416, -46400, -30208, -9920, -13056, -17536]

Using TensorFlow backend.
---[-12416, -46400, -30208, -9920, -13056, -17536]

Using TensorFlow backend.
---[-12416, -46400, -30208, -9920, -13056, -17536]

Using TensorFlow backend.
---[-12416, -46400, -30208, -9920, -13056, -17536]

Using TensorFlow backend.
---[-12416, -46400, -30208, -9920, -13056, -17536]

Using TensorFlow backend.
---[-12416, -46400, -30208, -9920, -13056, -17536]

Using TensorFlow backend.
---[-12416, -30208, -9920, -13056, -17536, -26048]

Using TensorFlow backend.
---[-12416, -46400, -30208, -9920, -13056, -17536]

Using TensorFlow backend.
---[-12416, -46400, -30208, -9920, -13056, -17536]

Using TensorFlow backend.
---[-12416, -46400, -30208, -9920, -13056, -17536]

Using TensorFlow backend.
---[-12416, -46400, -30208, -9920, -13056, -17536]

Using TensorFlow backend.
---[-12416, -46400, -30208, -9920, -13056, -17536]

Using TensorFlow backend.
---[-12416, -9920, -13056, -17536, -26048, -11264]

Using TensorFlow backend.
---[-12416, -9920, -13056, -17536, -11264, 32192]

Using TensorFlow backend.
---[-12416, -46400, -30208, -9920, -13056, -17536]

Using TensorFlow backend.
---[-12416, -46400, -30208, -9920, -13056, -17536]

Using TensorFlow backend.
---[47168, 62144, 57920, 47616, 46528, 32192]

Using TensorFlow backend.
---[-12416, -46400, -30208, -9920, -13056, -17536]

Using TensorFlow backend.
---[-12416, -46400, -30208, -9920, -13056, -17536]

Using TensorFlow backend.
---[-12416, -30208, -9920, -13056, -17536, -26048]

Using TensorFlow backend.
---[-12416, -30208, -9920, -13056, -17536, -26048]

Using TensorFlow backend.
---[-12416, -30208, -9920, -13056, -17536, -26048]

Using TensorFlow backend.
---[-12416, -46400, -30208, -9920, -13056, -17536]

Using TensorFlow backend.
---[-12416, -46400, -30208, -9920, -13056, -17536]

Using TensorFlow backend.
---[-12416, -46400, -30208, -9920, -13056, -17536]

Using TensorFlow backend.
---[-12416, -46400, -30208, -9920, -13056, -17536]

Using TensorFlow backend.
---[-12416, -46400, -30208, -9920, -13056, -17536]

Using TensorFlow backend.
---[-12416, -46400, -30208, -9920, -13056, -17536]

Using TensorFlow backend.
---[-12416, -46400, -30208, -9920, -13056, -17536]

Using TensorFlow backend.
---[-12416, -46400, -30208, -9920, -13056, -17536]

Using TensorFlow backend.
---[-12416, -46400, -30208, -9920, -13056, -17536]

Using TensorFlow backend.
---[-12416, -46400, -30208, -9920, -13056, -17536]

Using TensorFlow backend.
---[-12416, -46400, -30208, -9920, -13056, -17536]

Using TensorFlow backend.
---[-12416, -9920, -13056, -17536, -26048, -11264]

Using TensorFlow backend.
---[47168, -9920, -11264, 47616, 46528, 32192]

Using TensorFlow backend.
---[47168, 57920, 47616, 46528, 32192, 53952]

Using TensorFlow backend.
---[-12416, -46400, -30208, -9920, -13056, -17536]

Using TensorFlow backend.
---[-12416, -46400, -30208, -9920, -13056, -17536]

Using TensorFlow backend.
---[-12416, -46400, -30208, -9920, -13056, -17536]

Using TensorFlow backend.
---[47168, -9920, -11264, 47616, 46528, 32192]

Using TensorFlow backend.
---[-12416, -30208, -9920, -13056, -17536, -26048]

Using TensorFlow backend.
---[-12416, -9920, -13056, -17536, -26048, -11264]

Using TensorFlow backend.
---[-12416, -30208, -9920, -13056, -17536, -26048]

Using TensorFlow backend.
---[-12416, -9920, -13056, -17536, -11264, -21184]

Using TensorFlow backend.
---[47168, 47616, 46528, 32192, 53952, 26752]

Using TensorFlow backend.
---[-12416, -46400, -30208, -9920, -13056, -17536]

Using TensorFlow backend.
---[-12416, -9920, -13056, -17536, -11264, -21184]

Using TensorFlow backend.
---[47168, 57920, 47616, 46528, 32192, 53952]

Using TensorFlow backend.
---[-12416, -30208, -9920, -13056, -17536, -26048]

Using TensorFlow backend.
---[-12416, -46400, -30208, -9920, -13056, -17536]

Using TensorFlow backend.
---[47168, 57920, 47616, 46528, 32192, 53952]

Using TensorFlow backend.
---[-12416, -46400, -30208, -9920, -13056, -17536]

Using TensorFlow backend.
---[-12416, -46400, -30208, -9920, -13056, -17536]

Using TensorFlow backend.
---[-12416, -46400, -30208, -9920, -13056, -17536]

Using TensorFlow backend.
---[-12416, -9920, -13056, -17536, -11264, 32192]

Using TensorFlow backend.
---[-12416, 47168, -9920, -13056, -11264, 47616]

Using TensorFlow backend.
---[-12416, -30208, -9920, -13056, -17536, -26048]

Using TensorFlow backend.
---[-12416, 47168, -9920, -13056, -11264, 47616]

Using TensorFlow backend.
---[-12416, -30208, -9920, -13056, -17536, -26048]

Using TensorFlow backend.
---[-12416, -30208, -9920, -13056, -17536, -26048]

Using TensorFlow backend.
---[-12416, -30208, -9920, -13056, -17536, -26048]

Using TensorFlow backend.
---[-12416, -9920, -13056, -17536, -11264, 32192]

Using TensorFlow backend.
---[-12416, 47168, -9920, -13056, -11264, 47616]

Using TensorFlow backend.
---[-12416, -46400, -30208, -9920, -13056, -17536]

Using TensorFlow backend.
---[-12416, -46400, -30208, -9920, -13056, -17536]

Using TensorFlow backend.
---[-12416, -46400, -30208, -9920, -13056, -17536]

Using TensorFlow backend.
---[-12416, -46400, -30208, -9920, -13056, -17536]

Using TensorFlow backend.
---[-12416, -46400, -30208, -9920, -13056, -17536]

Using TensorFlow backend.
---[-12416, -46400, -30208, -9920, -13056, -17536]

Using TensorFlow backend.
---[-12416, -9920, -13056, -17536, -26048, -11264]

Using TensorFlow backend.
---[-12416, -46400, -30208, -9920, -13056, -17536]

Using TensorFlow backend.
---[-12416, -9920, -13056, -17536, -26048, -11264]

Using TensorFlow backend.
---[-12416, -46400, -30208, -9920, -13056, -17536]

Using TensorFlow backend.
---[-12416, -30208, -9920, -13056, -17536, -26048]

Using TensorFlow backend.
---[47168, 57920, 47616, 46528, 32192, 53952]

Using TensorFlow backend.
---[47168, 57920, 47616, 46528, 32192, 53952]

Using TensorFlow backend.
---[47168, 57920, 47616, 46528, 32192, 53952]

Using TensorFlow backend.
---[-12416, -46400, -30208, -9920, -13056, -17536]

Using TensorFlow backend.
---[-12416, -9920, -13056, -17536, -11264, -21184]

Using TensorFlow backend.
---[-12416, -9920, -13056, -17536, -11264, -21184]

Using TensorFlow backend.
---[-12416, -46400, -30208, -9920, -13056, -17536]

Using TensorFlow backend.
---[-12416, -30208, -9920, -13056, -17536, -26048]

Using TensorFlow backend.
---[-12416, -46400, -30208, -9920, -13056, -17536]

Using TensorFlow backend.
---[-12416, -46400, -30208, -9920, -13056, -17536]

Using TensorFlow backend.
---[-12416, -30208, -9920, -13056, -17536, -26048]

Using TensorFlow backend.
---[47168, 57920, 47616, 46528, 32192, 53952]

Using TensorFlow backend.
---[-12416, -30208, -9920, -13056, -17536, -26048]

Using TensorFlow backend.
---[47168, 57920, 47616, 46528, 32192, 53952]

Using TensorFlow backend.
---[47168, 57920, 47616, 46528, 32192, 53952]

Using TensorFlow backend.
---[47168, 47616, 46528, 32192, 53952, 26752]

Using TensorFlow backend.
---[-12416, -46400, -30208, -9920, -13056, -17536]

Using TensorFlow backend.
---[47168, 57920, 47616, 46528, 32192, 53952]

Using TensorFlow backend.
---[-12416, -9920, -13056, -17536, -11264, -21184]

Using TensorFlow backend.
---[-12416, -30208, -9920, -13056, -17536, -26048]

Using TensorFlow backend.
---[-12416, -30208, -9920, -13056, -17536, -26048]

Using TensorFlow backend.
---[-12416, -46400, -30208, -9920, -13056, -17536]

Using TensorFlow backend.
---[-12416, -30208, -9920, -13056, -17536, -26048]

Using TensorFlow backend.
---[-12416, -30208, -9920, -13056, -17536, -26048]

Using TensorFlow backend.
---[-12416, -46400, -30208, -9920, -13056, -17536]

Using TensorFlow backend.
---[-12416, -46400, -30208, -9920, -13056, -17536]

Using TensorFlow backend.
---[-12416, -30208, -9920, -13056, -17536, -26048]

Using TensorFlow backend.
---[-12416, -30208, -9920, -13056, -17536, -26048]

Using TensorFlow backend.
---[-12416, -9920, -13056, -17536, -11264, -21184]

Using TensorFlow backend.
---[-12416, -46400, -30208, -9920, -13056, -17536]

Using TensorFlow backend.
---[47168, 47616, 46528, 32192, 53952, 26752]

Using TensorFlow backend.
---[47168, 47616, 46528, 32192, 53952, 26752]

Using TensorFlow backend.
---[-12416, -46400, -30208, -9920, -13056, -17536]

Using TensorFlow backend.
---[-12416, -9920, -13056, -17536, -26048, -11264]

Using TensorFlow backend.
---[-12416, -9920, -13056, -17536, -26048, -11264]

Using TensorFlow backend.
---[-12416, 47168, -9920, -13056, -11264, 47616]

Using TensorFlow backend.
---[-12416, 47168, -9920, -13056, -11264, 47616]

Using TensorFlow backend.
---[-12416, -46400, -30208, -9920, -13056, -17536]

Using TensorFlow backend.
---[-12416, -46400, -30208, -9920, -13056, -17536]

Using TensorFlow backend.
---[47168, -9920, 47616, 46528, 32192, 53952]

Using TensorFlow backend.
---[47168, -9920, 47616, 46528, 32192, 53952]

Using TensorFlow backend.
---[47168, -9920, 47616, 46528, 32192, 53952]

Using TensorFlow backend.
---[47168, -9920, 47616, 46528, 32192, 53952]

Using TensorFlow backend.
---[47168, -9920, 47616, 46528, 32192, 53952]

Using TensorFlow backend.
---[-12416, 47168, -9920, -13056, -11264, 47616]

Using TensorFlow backend.
---[47168, 57920, 47616, 46528, 32192, 53952]

Using TensorFlow backend.
---[-12416, -9920, -13056, -17536, -11264, 46528]

Using TensorFlow backend.
---[-12416, 47168, -9920, -13056, -11264, 47616]

Using TensorFlow backend.
---[47168, 47616, 46528, 32192, 53952, 26752]

Using TensorFlow backend.
---[-12416, 47168, -9920, -13056, -11264, 47616]

Using TensorFlow backend.
---[-12416, 47168, -9920, -13056, -11264, 47616]

Using TensorFlow backend.
---[-12416, 47168, -9920, -13056, -11264, 47616]

Using TensorFlow backend.
---[-12416, -9920, -13056, -17536, -11264, 46528]

Using TensorFlow backend.
---[-12416, 47168, -9920, -13056, -11264, 47616]

Using TensorFlow backend.
---[-12416, -30208, -9920, -13056, -17536, -26048]

Using TensorFlow backend.
---[-12416, -9920, -13056, -17536, -11264, 32192]

Using TensorFlow backend.
---[-12416, -9920, -13056, -17536, -11264, -21184]

Using TensorFlow backend.
---[-12416, 47168, -9920, -13056, -11264, 47616]

Using TensorFlow backend.
---[-12416, -30208, -9920, -13056, -17536, -26048]

Using TensorFlow backend.
---[-12416, -9920, -13056, -17536, -11264, -21184]

Using TensorFlow backend.
---[-12416, -9920, -13056, -17536, -11264, -21184]

Using TensorFlow backend.
---[-12416, -9920, -13056, -17536, -26048, -11264]

Using TensorFlow backend.
---[-12416, -46400, -30208, -9920, -13056, -17536]

Using TensorFlow backend.
---[-12416, -46400, -30208, -9920, -13056, -17536]

Using TensorFlow backend.
---[-12416, -46400, -30208, -9920, -13056, -17536]

Using TensorFlow backend.
---[-12416, -46400, -30208, -9920, -13056, -17536]

Using TensorFlow backend.
---[-12416, -46400, -30208, -9920, -13056, -17536]

Using TensorFlow backend.
---[-12416, -9920, -13056, -17536, -26048, -11264]

Using TensorFlow backend.
---[-12416, -9920, -13056, -17536, -11264, -21184]

Using TensorFlow backend.
---[-12416, -46400, -30208, -9920, -13056, -17536]

Using TensorFlow backend.
---[-12416, -46400, -30208, -9920, -13056, -17536]

Using TensorFlow backend.
---[-12416, -46400, -30208, -9920, -13056, -17536]

Using TensorFlow backend.
---[-12416, -46400, -30208, -9920, -13056, -17536]

Using TensorFlow backend.
---[-12416, -30208, -9920, -13056, -17536, -26048]

Using TensorFlow backend.
---[-12416, -46400, -30208, -9920, -13056, -17536]

Using TensorFlow backend.
---[-12416, -46400, -30208, -9920, -13056, -17536]

Using TensorFlow backend.
---[-12416, -46400, -30208, -9920, -13056, -17536]

Using TensorFlow backend.
---[-12416, -46400, -30208, -9920, -13056, -17536]

Using TensorFlow backend.
---[-12416, -46400, -30208, -9920, -13056, -17536]

Using TensorFlow backend.
---[-12416, -46400, -30208, -9920, -13056, -17536]

Using TensorFlow backend.
---[-12416, -46400, -30208, -9920, -13056, -17536]

Using TensorFlow backend.
---[-12416, -46400, -30208, -9920, -13056, -17536]

Using TensorFlow backend.
---[-12416, -46400, -30208, -9920, -13056, -17536]

Using TensorFlow backend.
---[-12416, -46400, -30208, -9920, -13056, -17536]

Using TensorFlow backend.
---[-12416, -46400, -30208, -9920, -13056, -17536]

Using TensorFlow backend.
---[-12416, -46400, -30208, -9920, -13056, -17536]

Using TensorFlow backend.
---[-12416, -46400, -30208, -9920, -13056, -17536]

Using TensorFlow backend.
---[-12416, -46400, -30208, -9920, -13056, -17536]

Using TensorFlow backend.
---[-12416, -30208, -9920, -13056, -17536, -26048]

Using TensorFlow backend.
---[47168, 62144, 57920, 47616, 46528, 32192]

Using TensorFlow backend.
---[-12416, -9920, -13056, -17536, -11264, -21184]

Using TensorFlow backend.
---[-12416, -9920, -13056, -17536, -11264, -21184]

Using TensorFlow backend.
---[-12416, -9920, -13056, -17536, -11264, -21184]

Using TensorFlow backend.
---[-12416, -9920, -13056, -17536, -11264, -21184]

Using TensorFlow backend.
---[-12416, -9920, -13056, -17536, -11264, -21184]

Using TensorFlow backend.
---[-12416, -9920, -13056, -17536, -11264, -21184]

Using TensorFlow backend.
---[-12416, -9920, -13056, -17536, -11264, 32192]

Using TensorFlow backend.
---[-12416, -9920, -13056, -17536, -11264, -21184]

Using TensorFlow backend.
---[-12416, -9920, -13056, -17536, -11264, 32192]

Using TensorFlow backend.
---[-12416, -9920, -13056, -17536, -11264, 32192]

Using TensorFlow backend.
---[-12416, -9920, -13056, -17536, -11264, 32192]

Using TensorFlow backend.
---[-12416, -9920, -13056, -17536, -11264, 32192]

Using TensorFlow backend.
---[-12416, -9920, -13056, -17536, -11264, 32192]

Using TensorFlow backend.
---[-12416, -9920, -13056, -17536, -11264, 32192]

Using TensorFlow backend.
---[-12416, -9920, -13056, -17536, -11264, 32192]

Using TensorFlow backend.
---[-12416, -9920, -13056, -17536, -11264, 32192]

Using TensorFlow backend.
---[-12416, -9920, -13056, -17536, -11264, -21184]

Using TensorFlow backend.
---[-12416, -9920, -13056, -17536, -11264, -21184]

Using TensorFlow backend.
---[-12416, -9920, -13056, -17536, -11264, -21184]

Using TensorFlow backend.
---[-12416, -9920, -13056, -17536, -11264, -21184]

Using TensorFlow backend.
---[-12416, -9920, -13056, -17536, -11264, -21184]

Using TensorFlow backend.
---[-12416, -9920, -13056, -17536, -11264, -21184]

Using TensorFlow backend.
---[-12416, -9920, -13056, -17536, -11264, -21184]

Using TensorFlow backend.
---[-12416, 47168, -9920, -13056, -11264, 47616]

Using TensorFlow backend.
---[-12416, -46400, -30208, -9920, -13056, -17536]

Using TensorFlow backend.
---[-12416, -46400, -30208, -9920, -13056, -17536]

Using TensorFlow backend.
---[-12416, -9920, -13056, -17536, -11264, -21184]

Using TensorFlow backend.
---[47168, 57920, 47616, 46528, 32192, 53952]

Using TensorFlow backend.
---[-12416, -30208, -9920, -13056, -17536, -26048]

Using TensorFlow backend.
---[-12416, -9920, -13056, -17536, -11264, -21184]

Using TensorFlow backend.
---[-12416, -9920, -13056, -17536, -11264, -21184]

Using TensorFlow backend.
---[-12416, -30208, -9920, -13056, -17536, -26048]

Using TensorFlow backend.
---[-12416, -9920, -13056, -17536, -11264, -21184]

Using TensorFlow backend.
---[-12416, -9920, -13056, -17536, -11264, -21184]

Using TensorFlow backend.
---[-12416, -9920, -13056, -17536, -11264, -21184]

Using TensorFlow backend.
---[-12416, -9920, -13056, -17536, -11264, -21184]

Using TensorFlow backend.
---[47168, 47616, 46528, 32192, 53952, 26752]

Using TensorFlow backend.
---[47168, 47616, 46528, 32192, 53952, 26752]

Using TensorFlow backend.
---[47168, 47616, 46528, 32192, 53952, 26752]

Using TensorFlow backend.
---[-12416, -46400, -30208, -9920, -13056, -17536]

Using TensorFlow backend.
---[47168, 47616, 46528, 32192, 53952, 26752]

Using TensorFlow backend.
---[47168, 47616, 46528, 32192, 53952, 26752]

Using TensorFlow backend.
---[-12416, 47168, -9920, -13056, -11264, 47616]

Using TensorFlow backend.
---[-12416, -9920, -13056, -17536, -11264, 32192]

Using TensorFlow backend.
---[-12416, -9920, -13056, -17536, -11264, 32192]

Using TensorFlow backend.
---[-12416, -9920, -13056, -17536, -11264, 32192]

Using TensorFlow backend.
---[-12416, 47168, -9920, -13056, -11264, 47616]

Using TensorFlow backend.
---[47168, 47616, 46528, 32192, 53952, 26752]

Using TensorFlow backend.
---[-12416, -30208, -9920, -13056, -17536, -26048]

Using TensorFlow backend.
---[-12416, -30208, -9920, -13056, -17536, -26048]

Using TensorFlow backend.
---[-12416, -9920, -13056, -17536, -11264, 32192]

Using TensorFlow backend.
---[-12416, -9920, -13056, -17536, -11264, 32192]

Using TensorFlow backend.
---[-12416, -9920, -13056, -17536, -11264, -21184]

Using TensorFlow backend.
---[47168, 62144, 57920, 47616, 46528, 32192]

Using TensorFlow backend.
---[47168, 57920, 47616, 46528, 32192, 53952]

Using TensorFlow backend.
---[-12416, -30208, -9920, -13056, -17536, -26048]

Using TensorFlow backend.
---[47168, 57920, 47616, 46528, 32192, 61888]

Using TensorFlow backend.
---[-12416, -9920, -13056, -17536, -26048, -11264]

Using TensorFlow backend.
---[-12416, -9920, -13056, -17536, -11264, -21184]

Using TensorFlow backend.
---[-12416, -9920, -13056, -17536, -11264, -21184]

Using TensorFlow backend.
---[47168, 62144, 57920, 47616, 46528, 32192]

Using TensorFlow backend.
---[47168, 62144, 57920, 47616, 46528, 32192]

Using TensorFlow backend.
---[-12416, -30208, -9920, -13056, -17536, -26048]

Using TensorFlow backend.
---[-12416, -30208, -9920, -13056, -17536, -26048]

Using TensorFlow backend.
---[-12416, -30208, -9920, -13056, -17536, -26048]

Using TensorFlow backend.
---[-12416, -46400, -30208, -9920, -13056, -17536]

Using TensorFlow backend.
---[-12416, -46400, -30208, -9920, -13056, -17536]

Using TensorFlow backend.
---[-12416, -9920, -13056, -17536, -11264, -21184]

Using TensorFlow backend.
---[47168, 47616, 46528, 32192, 53952, 26752]

Using TensorFlow backend.
---[47168, 47616, 46528, 32192, 53952, 26752]

Using TensorFlow backend.
---[47168, 47616, 46528, 32192, 53952, 26752]

Using TensorFlow backend.
---[47168, 47616, 46528, 32192, 53952, 26752]

Using TensorFlow backend.
---[47168, 47616, 46528, 32192, 53952, 26752]

Using TensorFlow backend.
---[47168, 47616, 46528, 32192, 53952, 26752]

Using TensorFlow backend.
---[-12416, -46400, -30208, -9920, -13056, -17536]

Using TensorFlow backend.
---[47168, 47616, 46528, 32192, 53952, 26752]

Using TensorFlow backend.
---[-12416, -46400, -30208, -9920, -13056, -17536]

Using TensorFlow backend.
---[-12416, -9920, -13056, -17536, -26048, -11264]

Using TensorFlow backend.
---[-12416, -9920, -13056, -17536, -11264, -21184]

Using TensorFlow backend.
---[-12416, -9920, -13056, -17536, -11264, -21184]

Using TensorFlow backend.
---[-12416, -9920, -13056, -17536, -11264, -21184]

Using TensorFlow backend.
---[-12416, -9920, -13056, -17536, -11264, -21184]

Using TensorFlow backend.
---[-12416, -9920, -13056, -17536, -11264, -21184]

Using TensorFlow backend.
---[-12416, -9920, -13056, -17536, -11264, -21184]

Using TensorFlow backend.
---[-12416, -9920, -13056, -17536, -11264, -21184]

Using TensorFlow backend.
---[-12416, -9920, -13056, -17536, -11264, -21184]

Using TensorFlow backend.
---[-12416, -9920, -13056, -17536, -11264, -21184]

Using TensorFlow backend.
---[-12416, -9920, -13056, -17536, -11264, -21184]

Using TensorFlow backend.
---[-12416, -9920, -13056, -17536, -11264, -21184]

Using TensorFlow backend.
---[-12416, -9920, -13056, -17536, -11264, -21184]

Using TensorFlow backend.
---[-12416, -9920, -13056, -17536, -11264, -21184]

Using TensorFlow backend.
---[-12416, -9920, -13056, -17536, -11264, -21184]

Using TensorFlow backend.
---[-12416, -9920, -13056, -17536, -11264, -21184]

Using TensorFlow backend.
---[-12416, -9920, -13056, -17536, -11264, -21184]

Using TensorFlow backend.
---[-12416, -9920, -13056, -17536, -11264, -21184]

Using TensorFlow backend.
---[-12416, -9920, -13056, -17536, -11264, -21184]

Using TensorFlow backend.
---[-12416, -9920, -13056, -17536, -11264, -21184]

Using TensorFlow backend.
---[-12416, -9920, -13056, -17536, -11264, -21184]

Using TensorFlow backend.
---[-12416, -9920, -13056, -17536, -11264, -21184]

Using TensorFlow backend.
---[-12416, -9920, -13056, -17536, -11264, -21184]

Using TensorFlow backend.
---[-12416, -9920, -13056, -17536, -11264, -21184]

Using TensorFlow backend.
---[-12416, -9920, -13056, -17536, -11264, -21184]

Using TensorFlow backend.
---[47168, 62144, 57920, 47616, 46528, 32192]

Using TensorFlow backend.
---[-12416, -46400, -30208, -9920, -13056, -17536]

Using TensorFlow backend.
---[-12416, -30208, -9920, -13056, -17536, -26048]

Using TensorFlow backend.
---[-12416, -30208, -9920, -13056, -17536, -26048]

Using TensorFlow backend.
---[-12416, -30208, -9920, -13056, -17536, -26048]

Using TensorFlow backend.
---[-12416, -46400, -30208, -9920, -13056, -17536]

Using TensorFlow backend.
---[-12416, -30208, -9920, -13056, -17536, -26048]

Using TensorFlow backend.
---[-12416, -30208, -9920, -13056, -17536, -26048]

Using TensorFlow backend.
---[-12416, -46400, -30208, -9920, -13056, -17536]

Using TensorFlow backend.
---[-12416, -46400, -30208, -9920, -13056, -17536]

Using TensorFlow backend.
---[-12416, -30208, -9920, -13056, -17536, -26048]

Using TensorFlow backend.
---[47168, 62144, 57920, 47616, 46528, 32192]

Using TensorFlow backend.
---[-12416, -30208, -9920, -13056, -17536, -26048]

Using TensorFlow backend.
---[-12416, -30208, -9920, -13056, -17536, -26048]

Using TensorFlow backend.
---[47168, 62144, 57920, 47616, 46528, 32192]

Using TensorFlow backend.
---[-12416, -30208, -9920, -13056, -17536, -26048]

Using TensorFlow backend.
---[-12416, -46400, -30208, -9920, -13056, -17536]

Using TensorFlow backend.
---[-12416, -30208, -9920, -13056, -17536, -26048]

Using TensorFlow backend.
---[-12416, -30208, -9920, -13056, -17536, -26048]

Using TensorFlow backend.
---[-12416, -46400, -30208, -9920, -13056, -17536]

Using TensorFlow backend.
---[-12416, -46400, -30208, -9920, -13056, -17536]

Using TensorFlow backend.
---[-12416, -30208, -9920, -13056, -17536, -26048]

Using TensorFlow backend.
---[-12416, -46400, -30208, -9920, -13056, -17536]

Using TensorFlow backend.
---[47168, 57920, 47616, 46528, 32192, 53952]

Using TensorFlow backend.
---[47168, 57920, 47616, 46528, 32192, 53952]

Using TensorFlow backend.
---[47168, 47616, 46528, 32192, 53952, 26752]

Using TensorFlow backend.
---[47168, 57920, 47616, 46528, 32192, 53952]

Using TensorFlow backend.
---[47168, 47616, 46528, 32192, 53952, 26752]

Using TensorFlow backend.
---[47168, 47616, 46528, 32192, 53952, 26752]

Using TensorFlow backend.
---[-12416, 47168, -9920, -13056, -11264, 47616]

Using TensorFlow backend.
---[-12416, 47168, -9920, -13056, -11264, 47616]

Using TensorFlow backend.
---[-12416, -9920, -13056, -17536, -11264, 32192]

Using TensorFlow backend.
---[-12416, 47168, -9920, -13056, -11264, 47616]

Using TensorFlow backend.
---[-12416, -9920, -13056, -17536, -11264, -21184]

Using TensorFlow backend.
---[-12416, -9920, -13056, -17536, -11264, -21184]

Using TensorFlow backend.
---[-12416, -9920, -13056, -17536, -11264, -21184]

Using TensorFlow backend.
---[-12416, -9920, -13056, -17536, -11264, -21184]

Using TensorFlow backend.
---[-12416, -9920, -13056, -17536, -11264, -21184]

Using TensorFlow backend.
---[-12416, -9920, -13056, -17536, -11264, -21184]

Using TensorFlow backend.
---[-12416, -9920, -13056, -17536, -26048, -11264]

Using TensorFlow backend.
---[-12416, -30208, -9920, -13056, -17536, -26048]

Using TensorFlow backend.
---[-12416, -9920, -13056, -17536, -26048, -11264]

Using TensorFlow backend.
---[-12416, -9920, -13056, -17536, -26048, -11264]

Using TensorFlow backend.
---[-12416, -9920, -13056, -17536, -26048, -11264]

Using TensorFlow backend.
---[-12416, -9920, -13056, -17536, -26048, -11264]

Using TensorFlow backend.
---[-12416, -9920, -13056, -17536, -26048, -11264]

Using TensorFlow backend.
---[-12416, -30208, -9920, -13056, -17536, -26048]

Using TensorFlow backend.
---[-12416, -9920, -13056, -17536, -26048, -11264]

Using TensorFlow backend.
---[-12416, -30208, -9920, -13056, -17536, -26048]

Using TensorFlow backend.
---[-12416, -30208, -9920, -13056, -17536, -26048]

Using TensorFlow backend.
---[-12416, -30208, -9920, -13056, -17536, -26048]

Using TensorFlow backend.
---[-12416, -30208, -9920, -13056, -17536, -26048]

Using TensorFlow backend.
---[-12416, -46400, -30208, -9920, -13056, -17536]

Using TensorFlow backend.
---[-12416, -46400, -30208, -9920, -13056, -17536]

Using TensorFlow backend.
---[-12416, -46400, -30208, -9920, -13056, -17536]

Using TensorFlow backend.
---[-12416, -46400, -30208, -9920, -13056, -17536]

Using TensorFlow backend.
---[-12416, 47168, -9920, -13056, -17536, -11264]

Using TensorFlow backend.
---[-12416, 47168, -9920, -13056, -17536, -11264]

Using TensorFlow backend.
---[-12416, 47168, -9920, -13056, -17536, -11264]

Using TensorFlow backend.
---[-12416, -46400, -30208, -9920, -13056, -17536]

Using TensorFlow backend.
---[-12416, -46400, -30208, -9920, -13056, -17536]

Using TensorFlow backend.
---[-12416, 47168, -9920, -13056, -17536, -11264]

Using TensorFlow backend.
---[-12416, -46400, -30208, -9920, -13056, -17536]

Using TensorFlow backend.
---[-12416, -46400, -30208, -9920, -13056, -17536]

Using TensorFlow backend.
---[-12416, -46400, -30208, -9920, -13056, -17536]

Using TensorFlow backend.
---[-12416, -46400, -30208, -9920, -13056, -17536]

Using TensorFlow backend.
---[-12416, -46400, -30208, -9920, -13056, -17536]

Using TensorFlow backend.
---[-12416, -46400, -30208, -9920, -13056, -17536]

Using TensorFlow backend.
---[-12416, -46400, -30208, -9920, -13056, -17536]

Using TensorFlow backend.
---[-12416, -46400, -30208, -9920, -13056, -17536]

Using TensorFlow backend.
---[-12416, -46400, -30208, -9920, -13056, -17536]

Using TensorFlow backend.
---[-12416, -46400, -30208, -9920, -13056, -17536]

Using TensorFlow backend.
---[-12416, -46400, -30208, -9920, -13056, -17536]

Using TensorFlow backend.
---[-12416, -46400, -30208, -9920, -13056, -17536]

Using TensorFlow backend.
---[47168, 62144, 57920, 47616, 46528, 32192]

Using TensorFlow backend.
---[47168, 62144, 57920, 47616, 46528, 32192]

Using TensorFlow backend.
---[47168, 62144, 57920, 47616, 46528, 32192]

Using TensorFlow backend.
---[47168, 57920, 47616, 46528, 32192, 53952]

Using TensorFlow backend.
---[47168, 47616, 46528, 32192, 53952, 26752]

Using TensorFlow backend.
---[47168, 47616, 46528, 32192, 53952, 26752]

Using TensorFlow backend.
---[47168, 62144, 57920, 47616, 46528, 32192]

Using TensorFlow backend.
---[47168, 57920, 47616, 46528, 32192, 53952]

Using TensorFlow backend.
---[47168, -9920, -11264, 47616, 46528, 32192]

Using TensorFlow backend.
---[47168, -9920, -11264, 47616, 46528, 32192]

Using TensorFlow backend.
---[47168, -9920, 47616, 46528, 32192, 53952]

Using TensorFlow backend.
---[-12416, 47168, -9920, -13056, -11264, 47616]

Using TensorFlow backend.
---[-12416, 47168, -9920, -13056, -11264, 47616]

Using TensorFlow backend.
---[-12416, 47168, -9920, -13056, -11264, 47616]

Using TensorFlow backend.
---[47168, -9920, -11264, 47616, 46528, 32192]

Using TensorFlow backend.
---[47168, -9920, -11264, 47616, 46528, 32192]

Using TensorFlow backend.
---[-12416, -9920, -13056, -17536, -11264, 32192]

Using TensorFlow backend.
---[-12416, -9920, -13056, -17536, -11264, 32192]

Using TensorFlow backend.
---[-12416, -9920, -13056, -17536, -11264, 32192]

Using TensorFlow backend.
---[-12416, -9920, -13056, -17536, -11264, 32192]

Using TensorFlow backend.
---[-12416, -9920, -13056, -17536, -11264, 32192]

Using TensorFlow backend.
---[-12416, 47168, -9920, -13056, -11264, 47616]

Using TensorFlow backend.
---[-12416, 47168, -9920, -13056, -11264, 47616]

Using TensorFlow backend.
---[-12416, 47168, -9920, -13056, -11264, 47616]

Using TensorFlow backend.
---[-12416, 47168, -9920, -13056, -11264, 47616]

Using TensorFlow backend.
---[-12416, 47168, -9920, -13056, -11264, 47616]

Using TensorFlow backend.
---[-12416, -46400, -30208, -9920, -13056, -17536]

Using TensorFlow backend.
---[-12416, -46400, -30208, -9920, -13056, -17536]

Using TensorFlow backend.
---[-12416, 47168, -9920, -13056, -11264, 47616]

Using TensorFlow backend.
---[-12416, -46400, -30208, -9920, -13056, -17536]

Using TensorFlow backend.
---[-12416, -46400, -30208, -9920, -13056, -17536]

Using TensorFlow backend.
---[-12416, -46400, -30208, -9920, -13056, -17536]

Using TensorFlow backend.
---[-12416, -46400, -30208, -9920, -13056, -17536]

Using TensorFlow backend.
---[-12416, -46400, -30208, -9920, -13056, -17536]

Using TensorFlow backend.
---[-12416, -30208, -9920, -13056, -17536, -26048]

Using TensorFlow backend.
---[-12416, -30208, -9920, -13056, -17536, -26048]

Using TensorFlow backend.
---[-12416, -30208, -9920, -13056, -17536, -26048]

Using TensorFlow backend.
---[-12416, -30208, -9920, -13056, -17536, -26048]

Using TensorFlow backend.
---[-12416, -30208, -9920, -13056, -17536, -26048]

Using TensorFlow backend.
---[-12416, -9920, -13056, -17536, -11264, -21184]

Using TensorFlow backend.
---[-12416, -9920, -13056, -17536, -11264, -21184]

Using TensorFlow backend.
---[-12416, -9920, -13056, -17536, -11264, -21184]

Using TensorFlow backend.
---[-12416, -9920, -13056, -17536, -11264, -21184]

Using TensorFlow backend.
---[-12416, -9920, -13056, -17536, -11264, -21184]

Using TensorFlow backend.
---[-12416, -9920, -13056, -17536, -11264, -21184]

Using TensorFlow backend.
---[-12416, -9920, -13056, -17536, -11264, -21184]

Using TensorFlow backend.
---[-12416, -9920, -13056, -17536, -11264, -21184]

Using TensorFlow backend.
---[-12416, -9920, -13056, -17536, -11264, -21184]

Using TensorFlow backend.
---[-12416, -9920, -13056, -17536, -11264, -21184]

Using TensorFlow backend.
---[-12416, -9920, -13056, -17536, -11264, -21184]

Using TensorFlow backend.
---[-12416, -9920, -13056, -17536, -11264, -21184]

Using TensorFlow backend.
---[-12416, -9920, -13056, -17536, -11264, -21184]

Using TensorFlow backend.
---[-12416, -9920, -13056, -17536, -11264, -21184]

Using TensorFlow backend.
---[-12416, -9920, -13056, -17536, -11264, -21184]

Using TensorFlow backend.
---[-12416, -9920, -13056, -17536, -11264, -21184]

Using TensorFlow backend.
---[-12416, -9920, -13056, -17536, -11264, -21184]

Using TensorFlow backend.
---[-12416, -30208, -9920, -13056, -17536, -26048]

Using TensorFlow backend.
---[-12416, -30208, -9920, -13056, -17536, -26048]

Using TensorFlow backend.
---[-12416, -30208, -9920, -13056, -17536, -26048]

Using TensorFlow backend.
---[-12416, -30208, -9920, -13056, -17536, -26048]

Using TensorFlow backend.
---[-12416, -30208, -9920, -13056, -17536, -26048]

Using TensorFlow backend.
---[-12416, -30208, -9920, -13056, -17536, -26048]

Using TensorFlow backend.
---[-12416, -30208, -9920, -13056, -17536, -26048]

Using TensorFlow backend.
---[-12416, -46400, -30208, -9920, -13056, -17536]

Using TensorFlow backend.
---[-12416, -46400, -30208, -9920, -13056, -17536]

Using TensorFlow backend.
---[-12416, -46400, -30208, -9920, -13056, -17536]

Using TensorFlow backend.
---[-12416, -46400, -30208, -9920, -13056, -17536]

Using TensorFlow backend.
---[-12416, -30208, -9920, -13056, -17536, -26048]

Using TensorFlow backend.
---[-12416, -46400, -30208, -9920, -13056, -17536]

Using TensorFlow backend.
---[-12416, -46400, -30208, -9920, -13056, -17536]

Using TensorFlow backend.
---[47168, 62144, 57920, 47616, 46528, 32192]

Using TensorFlow backend.
---[47168, 57920, 47616, 46528, 32192, 61888]

Using TensorFlow backend.
---[47168, 57920, 47616, 46528, 32192, 53952]

Using TensorFlow backend.
---[47168, -9920, 47616, 46528, 32192, 53952]

Using TensorFlow backend.
---[47168, -9920, 47616, 46528, 32192, 53952]

Using TensorFlow backend.
---[47168, -9920, 47616, 46528, 32192, 53952]

Using TensorFlow backend.
---[-12416, 47168, -9920, -13056, -11264, 47616]

Using TensorFlow backend.
---[-12416, 47168, -9920, -13056, -11264, 47616]

Using TensorFlow backend.
---[-12416, -9920, -13056, -17536, -11264, -21184]

Using TensorFlow backend.
---[-12416, 47168, -9920, -11264, 47616, 46528]

Using TensorFlow backend.
---[-12416, 47168, -9920, -13056, -11264, 47616]

Using TensorFlow backend.
---[-12416, -9920, -13056, -17536, -26048, -11264]

Using TensorFlow backend.
---[-12416, -9920, -13056, -17536, -26048, -11264]

Using TensorFlow backend.
---[-12416, -30208, -9920, -13056, -17536, -26048]

Using TensorFlow backend.
---[-12416, -30208, -9920, -13056, -17536, -26048]

Using TensorFlow backend.
---[-12416, -30208, -9920, -13056, -17536, -26048]

Using TensorFlow backend.
---[-12416, -30208, -9920, -13056, -17536, -26048]

Using TensorFlow backend.
---[-12416, -30208, -9920, -13056, -17536, -26048]

Using TensorFlow backend.
---[-12416, -30208, -9920, -13056, -17536, -26048]

Using TensorFlow backend.
---[-12416, -30208, -9920, -13056, -17536, -26048]

Using TensorFlow backend.
---[-12416, -30208, -9920, -13056, -17536, -26048]

Using TensorFlow backend.
---[-12416, -46400, -30208, -9920, -13056, -17536]

Using TensorFlow backend.
---[-12416, -46400, -30208, -9920, -13056, -17536]

Using TensorFlow backend.
---[-12416, -46400, -30208, -9920, -13056, -17536]

Using TensorFlow backend.
---[-12416, -46400, -30208, -9920, -13056, -17536]

Using TensorFlow backend.
---[-12416, -46400, -30208, -9920, -13056, -17536]

Using TensorFlow backend.
---[-12416, -46400, -30208, -9920, -13056, -17536]

Using TensorFlow backend.
---[-12416, -46400, -30208, -9920, -13056, -17536]

Using TensorFlow backend.
---[-12416, -46400, -30208, -9920, -13056, -17536]

Using TensorFlow backend.
---[-12416, -46400, -30208, -9920, -13056, -17536]

Using TensorFlow backend.
---[47168, 62144, 57920, 47616, 46528, 32192]

Using TensorFlow backend.
---[47168, 57920, 47616, 46528, 32192, 53952]

Using TensorFlow backend.
---[47168, 57920, 47616, 46528, 32192, 53952]

Using TensorFlow backend.
---[47168, -9920, 47616, 46528, 32192, 53952]

Using TensorFlow backend.
---[-12416, 47168, -9920, -11264, 47616, 46528]

Using TensorFlow backend.
---[-12416, 47168, -9920, -13056, -11264, 47616]

Using TensorFlow backend.
---[-12416, 47168, -9920, -13056, -17536, -11264]

Using TensorFlow backend.
---[-12416, 47168, -9920, -13056, -11264, 47616]

Using TensorFlow backend.
---[-12416, -9920, -13056, -17536, -11264, -21184]

Using TensorFlow backend.
---[-12416, -9920, -13056, -17536, -11264, -21184]

Using TensorFlow backend.
---[-12416, -9920, -13056, -17536, -11264, -21184]

Using TensorFlow backend.
---[-12416, -9920, -13056, -17536, -11264, -21184]

Using TensorFlow backend.
---[-12416, -9920, -13056, -17536, -11264, -21184]

Using TensorFlow backend.
---[-12416, -30208, -9920, -13056, -17536, -26048]

Using TensorFlow backend.
---[-12416, -30208, -9920, -13056, -17536, -26048]

Using TensorFlow backend.
---[-12416, -30208, -9920, -13056, -17536, -26048]

Using TensorFlow backend.
---[-12416, -30208, -9920, -13056, -17536, -26048]

Using TensorFlow backend.
---[-12416, -30208, -9920, -13056, -17536, -26048]

Using TensorFlow backend.
---[-12416, -30208, -9920, -13056, -17536, -26048]

Using TensorFlow backend.
---[-12416, -30208, -9920, -13056, -17536, -26048]

Using TensorFlow backend.
---[-12416, -46400, -30208, -9920, -13056, -17536]

Using TensorFlow backend.
---[-12416, -30208, -9920, -13056, -17536, -26048]

Using TensorFlow backend.
---[-12416, -46400, -30208, -9920, -13056, -17536]

Using TensorFlow backend.
---[-12416, -46400, -30208, -9920, -13056, -17536]

Using TensorFlow backend.
---[-12416, -46400, -30208, -9920, -13056, -17536]

Using TensorFlow backend.
---[-12416, -46400, -30208, -9920, -13056, -17536]

Using TensorFlow backend.
---[-12416, -46400, -30208, -9920, -13056, -17536]

Using TensorFlow backend.
---[-12416, -46400, -30208, -9920, -13056, -17536]

Using TensorFlow backend.
---[-12416, -46400, -30208, -9920, -13056, -17536]

Using TensorFlow backend.
---[-12416, -46400, -30208, -9920, -13056, -17536]

Using TensorFlow backend.
---[-12416, -46400, -30208, -9920, -13056, -17536]

Using TensorFlow backend.
---[-12416, -46400, -30208, -9920, -13056, -17536]

Using TensorFlow backend.
---[-12416, -46400, -30208, -9920, -13056, -17536]

Using TensorFlow backend.
---[47168, 62144, 57920, 47616, 46528, 32192]

Using TensorFlow backend.
---[47168, 62144, 57920, 47616, 46528, 32192]

Using TensorFlow backend.
---[47168, 57920, 47616, 46528, 32192, 53952]

Using TensorFlow backend.
---[47168, -9920, 47616, 46528, 32192, 53952]

Using TensorFlow backend.
---[47168, -9920, 47616, 46528, 32192, 53952]

Using TensorFlow backend.
---[47168, 62144, 57920, 47616, 46528, 32192]

Using TensorFlow backend.
---[-12416, 47168, -9920, -13056, -11264, 47616]

Using TensorFlow backend.
---[-12416, 47168, -9920, -13056, -11264, 47616]

Using TensorFlow backend.
---[-12416, 47168, -9920, -13056, -17536, -11264]

Using TensorFlow backend.
---[-12416, -9920, -13056, -17536, -11264, 46528]

Using TensorFlow backend.
---[-12416, -9920, -13056, -17536, -11264, 46528]

Using TensorFlow backend.
---[-12416, -9920, -13056, -17536, -11264, -21184]

Using TensorFlow backend.
---[-12416, -9920, -13056, -17536, -11264, -21184]

Using TensorFlow backend.
---[-12416, -9920, -13056, -17536, -26048, -11264]

Using TensorFlow backend.
---[-12416, -9920, -13056, -17536, -26048, -11264]

Using TensorFlow backend.
---[-12416, -9920, -13056, -17536, -26048, -11264]

Using TensorFlow backend.
---[-12416, -9920, -13056, -17536, -26048, -11264]

Using TensorFlow backend.
---[-12416, -9920, -13056, -17536, -26048, -11264]

Using TensorFlow backend.
---[-12416, -30208, -9920, -13056, -17536, -26048]

Using TensorFlow backend.
---[-12416, -30208, -9920, -13056, -17536, -26048]

Using TensorFlow backend.
---[-12416, -30208, -9920, -13056, -17536, -26048]

Using TensorFlow backend.
---[-12416, -30208, -9920, -13056, -17536, -26048]

Using TensorFlow backend.
---[-12416, -30208, -9920, -13056, -17536, -26048]

Using TensorFlow backend.
---[-12416, -46400, -30208, -9920, -13056, -17536]

Using TensorFlow backend.
---[-12416, -46400, -30208, -9920, -13056, -17536]

Using TensorFlow backend.
---[-12416, -46400, -30208, -9920, -13056, -17536]

Using TensorFlow backend.
---[-12416, -46400, -30208, -9920, -13056, -17536]

Using TensorFlow backend.
---[-12416, -46400, -30208, -9920, -13056, -17536]

Using TensorFlow backend.
---[-12416, -46400, -30208, -9920, -13056, -17536]

Using TensorFlow backend.
---[-12416, -46400, -30208, -9920, -13056, -17536]

Using TensorFlow backend.
---[-12416, -46400, -30208, -9920, -13056, -17536]

Using TensorFlow backend.
---[-12416, -46400, -30208, -9920, -13056, -17536]

Using TensorFlow backend.
---[-12416, -46400, -30208, -9920, -13056, -17536]

Using TensorFlow backend.
---[-12416, -46400, -30208, -9920, -13056, -17536]

Using TensorFlow backend.
---[-12416, -46400, -30208, -9920, -13056, -17536]

Using TensorFlow backend.
---[-12416, -46400, -30208, -9920, -13056, -17536]

Using TensorFlow backend.
---[-12416, -46400, -30208, -9920, -13056, -17536]

Using TensorFlow backend.
---[47168, 57920, 47616, 46528, 32192, 53952]

Using TensorFlow backend.
---[47168, 57920, 47616, 46528, 32192, 53952]

Using TensorFlow backend.
---[47168, 57920, 47616, 46528, 32192, 53952]

Using TensorFlow backend.
---[47168, 57920, 47616, 46528, 32192, 53952]

Using TensorFlow backend.
---[47168, -9920, 47616, 46528, 32192, 53952]

Using TensorFlow backend.
---[-12416, 47168, -9920, -13056, -11264, 47616]

Using TensorFlow backend.
---[-12416, 47168, -9920, -13056, -11264, 47616]

Using TensorFlow backend.
---[-12416, 47168, -9920, -13056, -11264, 47616]

Using TensorFlow backend.
---[-12416, 47168, -9920, -13056, -17536, -11264]

Using TensorFlow backend.
---[-12416, -9920, -13056, -17536, -11264, -21184]

Using TensorFlow backend.
---[-12416, -9920, -13056, -17536, -11264, -21184]

Using TensorFlow backend.
---[-12416, -9920, -13056, -17536, -11264, -21184]

Using TensorFlow backend.
---[-12416, -9920, -13056, -17536, -11264, 32192]

Using TensorFlow backend.
[...]

Using TensorFlow backend.
---[-12416, -9920, -13056, -17536, -26048, -11264]

Using TensorFlow backend.
---[-12416, -30208, -9920, -13056, -17536, -26048]

Using TensorFlow backend.
---[-12416, -9920, -13056, -17536, -26048, -11264]

Using TensorFlow backend.
---[-12416, -46400, -30208, -9920, -13056, -17536]

Using TensorFlow backend.
---[-12416, -9920, -13056, -17536, -26048, -11264]

Using TensorFlow backend.
---[-12416, -30208, -9920, -13056, -17536, -26048]

Using TensorFlow backend.
---[-12416, -46400, -30208, -9920, -13056, -17536]

Using TensorFlow backend.
---[-12416, -46400, -30208, -9920, -13056, -17536]

Using TensorFlow backend.
---[47168, 47616, 46528, 32192, 53952, 26752]

Using TensorFlow backend.
---[-12416, -30208, -9920, -13056, -17536, -26048]

Using TensorFlow backend.
---[-12416, -46400, -30208, -9920, -13056, -17536]

Using TensorFlow backend.
---[-12416, -30208, -9920, -13056, -17536, -26048]

Using TensorFlow backend.
---[-12416, -46400, -30208, -9920, -13056, -17536]

Using TensorFlow backend.
---[-12416, -30208, -9920, -13056, -17536, -26048]

Using TensorFlow backend.
---[-12416, -30208, -9920, -13056, -17536, -26048]

Using TensorFlow backend.
---[-12416, -30208, -9920, -13056, -17536, -26048]

Using TensorFlow backend.
---[47168, 62144, 57920, 47616, 46528, 32192]

Using TensorFlow backend.
---[47168, 62144, 57920, 47616, 46528, 32192]

Using TensorFlow backend.
---[-12416, -30208, -9920, -13056, -17536, -26048]

Using TensorFlow backend.
---[-12416, -30208, -9920, -13056, -17536, -26048]

Using TensorFlow backend.
---[-12416, -30208, -9920, -13056, -17536, -26048]

Using TensorFlow backend.
---[-12416, -46400, -30208, -9920, -13056, -17536]

Using TensorFlow backend.
---[-12416, -46400, -30208, -9920, -13056, -17536]

Using TensorFlow backend.
---[-12416, -46400, -30208, -9920, -13056, -17536]

Using TensorFlow backend.
---[-12416, -30208, -9920, -13056, -17536, -26048]

Using TensorFlow backend.
---[-12416, -46400, -30208, -9920, -13056, -17536]

Using TensorFlow backend.
---[-12416, -9920, -13056, -17536, -26048, -11264]

Using TensorFlow backend.
---[-12416, -9920, -13056, -17536, -26048, -11264]

Using TensorFlow backend.
---[-12416, -30208, -9920, -13056, -17536, -26048]

Using TensorFlow backend.
---[-12416, -30208, -9920, -13056, -17536, -26048]

Using TensorFlow backend.
---[-12416, -30208, -9920, -13056, -17536, -26048]

Using TensorFlow backend.
---[47168, 47616, 46528, 32192, 53952, 26752]

Using TensorFlow backend.
---[-12416, -9920, -13056, -17536, -11264, 32192]

Using TensorFlow backend.
---[-12416, -9920, -13056, -17536, -11264, 32192]

Using TensorFlow backend.
---[-12416, -30208, -9920, -13056, -17536, -26048]

Using TensorFlow backend.
---[47168, 57920, 47616, 46528, 32192, 53952]

Using TensorFlow backend.
---[47168, 57920, 47616, 46528, 32192, 53952]

Using TensorFlow backend.
---[-12416, -46400, -30208, -9920, -13056, -17536]

Using TensorFlow backend.
---[-12416, -46400, -30208, -9920, -13056, -17536]

Using TensorFlow backend.
---[47168, 57920, 47616, 46528, 32192, 53952]

Using TensorFlow backend.
---[47168, 57920, 47616, 46528, 32192, 53952]

Using TensorFlow backend.
---[-12416, -30208, -9920, -13056, -17536, -26048]

Using TensorFlow backend.
---[-12416, -30208, -9920, -13056, -17536, -26048]

Using TensorFlow backend.
---[-12416, 47168, -9920, -13056, -11264, 47616]

Using TensorFlow backend.
---[47168, 47616, 46528, 32192, 53952, 26752]

Using TensorFlow backend.
---[47168, 47616, 46528, 32192, 53952, 26752]

Using TensorFlow backend.
---[47168, 62144, 57920, 47616, 46528, 32192]

Using TensorFlow backend.
---[47168, 62144, 57920, 47616, 46528, 32192]

Using TensorFlow backend.
---[-12416, -30208, -9920, -13056, -17536, -26048]

Using TensorFlow backend.
---[-12416, -30208, -9920, -13056, -17536, -26048]

Using TensorFlow backend.
---[47168, 57920, 47616, 46528, 32192, 53952]

Using TensorFlow backend.
---[-12416, -46400, -30208, -9920, -13056, -17536]

Using TensorFlow backend.
---[-12416, -46400, -30208, -9920, -13056, -17536]

Using TensorFlow backend.
---[47168, 57920, 47616, 46528, 32192, 53952]

Using TensorFlow backend.
---[47168, 57920, 47616, 46528, 32192, 53952]

Using TensorFlow backend.
---[47168, 57920, 47616, 46528, 32192, 53952]

Using TensorFlow backend.
---[-12416, 47168, -9920, -13056, -11264, 47616]

Using TensorFlow backend.
---[-12416, 47168, -9920, -13056, -11264, 47616]

Using TensorFlow backend.
---[-12416, 47168, -9920, -13056, -11264, 47616]

Using TensorFlow backend.
---[47168, 47616, 46528, 32192, 53952, 26752]

Using TensorFlow backend.
---[-12416, 47168, -9920, -13056, -11264, 47616]

Using TensorFlow backend.
---[47168, -9920, 47616, 46528, 32192, 53952]

Using TensorFlow backend.
---[47168, -9920, 47616, 46528, 32192, 53952]

Using TensorFlow backend.
---[-12416, -30208, -9920, -13056, -17536, -26048]

Using TensorFlow backend.
---[47168, 57920, 47616, 46528, 32192, 53952]

Using TensorFlow backend.
---[-12416, -9920, -13056, -17536, -11264, -21184]

Using TensorFlow backend.
---[-12416, -9920, -13056, -17536, -11264, -21184]

Using TensorFlow backend.
---[-12416, -9920, -13056, -17536, -11264, -21184]

Using TensorFlow backend.
---[-12416, -9920, -13056, -17536, -11264, -21184]

Using TensorFlow backend.
---[-12416, -9920, -13056, -17536, -26048, -11264]

Using TensorFlow backend.
---[-12416, -9920, -13056, -17536, -26048, -11264]

Using TensorFlow backend.
---[-12416, -9920, -13056, -17536, -26048, -11264]

Using TensorFlow backend.
---[-12416, -30208, -9920, -13056, -17536, -26048]

Using TensorFlow backend.
---[-12416, -30208, -9920, -13056, -17536, -26048]

Using TensorFlow backend.
---[-12416, -30208, -9920, -13056, -17536, -26048]

Using TensorFlow backend.
---[-12416, -9920, -13056, -17536, -11264, -21184]

Using TensorFlow backend.
---[-12416, -9920, -13056, -17536, -11264, -21184]

Using TensorFlow backend.
---[-12416, -9920, -13056, -17536, -11264, 46528]

Using TensorFlow backend.
---[47168, 57920, 47616, 46528, 32192, 53952]

Using TensorFlow backend.
---[-12416, -9920, -13056, -17536, -11264, -21184]

Using TensorFlow backend.
---[-12416, 47168, -9920, -13056, -11264, 47616]

Using TensorFlow backend.
---[-12416, 47168, -9920, -13056, -11264, 47616]

Using TensorFlow backend.
---[-12416, -9920, -13056, -17536, -11264, -21184]

Using TensorFlow backend.
---[-12416, -9920, -13056, -17536, -11264, -21184]

Using TensorFlow backend.
---[-12416, -9920, -13056, -17536, -11264, -21184]

Using TensorFlow backend.
---[-12416, 47168, -9920, -13056, -11264, 47616]

Using TensorFlow backend.
---[47168, -9920, -11264, 47616, 46528, 32192]

Using TensorFlow backend.
---[-12416, 47168, -9920, -13056, -11264, 47616]

Using TensorFlow backend.
---[-12416, -9920, -13056, -17536, -11264, 32192]

Using TensorFlow backend.
---[-12416, -9920, -13056, -17536, -11264, 32192]

Using TensorFlow backend.
---[-12416, 47168, -9920, -13056, -11264, 47616]

Using TensorFlow backend.
---[-12416, -9920, -13056, -17536, -11264, -21184]

Using TensorFlow backend.
---[-12416, -9920, -13056, -17536, -11264, -21184]

Using TensorFlow backend.
---[-12416, -46400, -30208, -9920, -13056, -17536]

Using TensorFlow backend.
---[-12416, -46400, -30208, -9920, -13056, -17536]

Using TensorFlow backend.
---[-12416, -46400, -30208, -9920, -13056, -17536]

Using TensorFlow backend.
---[-12416, -46400, -30208, -9920, -13056, -17536]

Using TensorFlow backend.
---[-12416, -9920, -13056, -17536, -11264, 32192]

Using TensorFlow backend.
---[-12416, -9920, -13056, -17536, -11264, 32192]

Using TensorFlow backend.
---[-12416, -30208, -9920, -13056, -17536, -26048]

Using TensorFlow backend.
---[-12416, -30208, -9920, -13056, -17536, -26048]

Using TensorFlow backend.
---[-12416, -9920, -13056, -17536, -11264, 32192]

Using TensorFlow backend.
---[-12416, -9920, -13056, -17536, -11264, 32192]

Using TensorFlow backend.
---[-12416, -46400, -30208, -9920, -13056, -17536]

Using TensorFlow backend.
---[-12416, -46400, -30208, -9920, -13056, -17536]

Using TensorFlow backend.
---[-12416, -9920, -13056, -17536, -26048, -11264]

Using TensorFlow backend.
---[47168, 47616, 46528, 32192, 53952, 26752]

Using TensorFlow backend.
---[47168, 47616, 46528, 32192, 53952, 26752]

Using TensorFlow backend.
---[47168, 47616, 46528, 32192, 53952, 26752]

Using TensorFlow backend.
---[47168, 47616, 46528, 32192, 53952, 26752]

Using TensorFlow backend.
---[-12416, -9920, -13056, -17536, -11264, -21184]

Using TensorFlow backend.
---[47168, 47616, 46528, 32192, 53952, 26752]

Using TensorFlow backend.
---[47168, 47616, 46528, 32192, 53952, 26752]

Using TensorFlow backend.
---[-12416, -9920, -13056, -17536, -11264, -21184]

Using TensorFlow backend.
---[47168, 47616, 46528, 32192, 53952, 26752]

Using TensorFlow backend.
---[-12416, -9920, -13056, -17536, -26048, -11264]

Using TensorFlow backend.
---[-12416, 47168, -9920, -13056, -11264, 47616]

Using TensorFlow backend.
---[-12416, -30208, -9920, -13056, -17536, -26048]

Using TensorFlow backend.
---[-12416, -30208, -9920, -13056, -17536, -26048]

Using TensorFlow backend.
---[-12416, 47168, -9920, -13056, -11264, 47616]

Using TensorFlow backend.
---[-12416, -30208, -9920, -13056, -17536, -26048]

Using TensorFlow backend.
---[-12416, -46400, -30208, -9920, -13056, -17536]

Using TensorFlow backend.
---[-12416, -30208, -9920, -13056, -17536, -26048]

Using TensorFlow backend.
---[47168, 47616, 46528, 32192, 53952, 26752]

Using TensorFlow backend.
---[-12416, -9920, -13056, -17536, -26048, -11264]

Using TensorFlow backend.
---[-12416, -30208, -9920, -13056, -17536, -26048]

Using TensorFlow backend.
---[-12416, -9920, -13056, -17536, -26048, -11264]

Using TensorFlow backend.
---[-12416, -30208, -9920, -13056, -17536, -26048]

Using TensorFlow backend.
---[-12416, -30208, -9920, -13056, -17536, -26048]

Using TensorFlow backend.
---[-12416, -9920, -13056, -17536, -26048, -11264]

Using TensorFlow backend.
---[-12416, -30208, -9920, -13056, -17536, -26048]

Using TensorFlow backend.
---[-12416, -30208, -9920, -13056, -17536, -26048]

Using TensorFlow backend.
---[-12416, -30208, -9920, -13056, -17536, -26048]

Using TensorFlow backend.
---[-12416, -30208, -9920, -13056, -17536, -26048]

Using TensorFlow backend.
---[-12416, -46400, -30208, -9920, -13056, -17536]

Using TensorFlow backend.
---[-12416, -46400, -30208, -9920, -13056, -17536]

Using TensorFlow backend.
---[-12416, -30208, -9920, -13056, -17536, -26048]

Using TensorFlow backend.
---[-12416, -30208, -9920, -13056, -17536, -26048]

Using TensorFlow backend.
---[-12416, -30208, -9920, -13056, -17536, -26048]

Using TensorFlow backend.
---[-12416, -30208, -9920, -13056, -17536, -26048]

Using TensorFlow backend.
---[-12416, -30208, -9920, -13056, -17536, -26048]

Using TensorFlow backend.
---[-12416, -30208, -9920, -13056, -17536, -26048]

Using TensorFlow backend.
---[-12416, -9920, -13056, -17536, -26048, -11264]

Using TensorFlow backend.
---[-12416, -30208, -9920, -13056, -17536, -26048]

Using TensorFlow backend.
---[-12416, -9920, -13056, -17536, -26048, -11264]

Using TensorFlow backend.
---[-12416, -9920, -13056, -17536, -11264, -21184]

Using TensorFlow backend.
---[-12416, -9920, -13056, -17536, -11264, -21184]

Using TensorFlow backend.
---[-12416, -46400, -30208, -9920, -13056, -17536]

Using TensorFlow backend.
---[-12416, 47168, -9920, -13056, -11264, 47616]

Using TensorFlow backend.
---[-12416, -46400, -30208, -9920, -13056, -17536]

Using TensorFlow backend.
---[-12416, 47168, -9920, -13056, -11264, 47616]

Using TensorFlow backend.
---[-12416, -30208, -9920, -13056, -17536, -26048]

Using TensorFlow backend.
---[-12416, -9920, -13056, -17536, -11264, -21184]

Using TensorFlow backend.
---[-12416, -9920, -13056, -17536, -11264, -21184]

Using TensorFlow backend.
---[-12416, -9920, -13056, -17536, -26048, -11264]

Using TensorFlow backend.
---[47168, 47616, 46528, 32192, 53952, 26752]

Using TensorFlow backend.
---[-12416, -9920, -13056, -17536, -26048, -11264]

Using TensorFlow backend.
---[-12416, 47168, -9920, -13056, -11264, 47616]

Using TensorFlow backend.
---[-12416, -9920, -13056, -17536, -11264, -21184]

Using TensorFlow backend.
---[-12416, -9920, -13056, -17536, -11264, -21184]

Using TensorFlow backend.
---[-12416, -46400, -30208, -9920, -13056, -17536]

Using TensorFlow backend.
---[-12416, -46400, -30208, -9920, -13056, -17536]

Using TensorFlow backend.
---[-12416, -9920, -13056, -17536, -11264, -21184]

Using TensorFlow backend.
---[-12416, -9920, -13056, -17536, -26048, -11264]

Using TensorFlow backend.
---[-12416, -46400, -30208, -9920, -13056, -17536]

Using TensorFlow backend.
---[-12416, -9920, -13056, -17536, -26048, -11264]

Using TensorFlow backend.
---[-12416, -9920, -13056, -17536, -11264, -21184]

Using TensorFlow backend.
---[-12416, -9920, -13056, -17536, -11264, -21184]

Using TensorFlow backend.
---[-12416, -30208, -9920, -13056, -17536, -26048]

Using TensorFlow backend.
---[47168, 47616, 46528, 32192, 53952, 26752]

Using TensorFlow backend.
---[-12416, -9920, -13056, -17536, -11264, -21184]

Using TensorFlow backend.
---[-12416, -30208, -9920, -13056, -17536, -26048]

Using TensorFlow backend.
---[-12416, -46400, -30208, -9920, -13056, -17536]

Using TensorFlow backend.
---[-12416, -46400, -30208, -9920, -13056, -17536]

Using TensorFlow backend.
---[47168, 47616, 46528, 32192, 53952, 26752]

Using TensorFlow backend.
---[-12416, -9920, -13056, -17536, -11264, -21184]

Using TensorFlow backend.
---[-12416, -9920, -13056, -17536, -11264, -21184]

Using TensorFlow backend.
---[-12416, -30208, -9920, -13056, -17536, -26048]

Using TensorFlow backend.
---[-12416, -9920, -13056, -17536, -11264, -21184]

Using TensorFlow backend.
---[-12416, -46400, -30208, -9920, -13056, -17536]

Using TensorFlow backend.
---[-12416, -9920, -13056, -17536, -11264, -21184]

Using TensorFlow backend.
---[-12416, -46400, -30208, -9920, -13056, -17536]

Using TensorFlow backend.
---[-12416, -30208, -9920, -13056, -17536, -26048]

Using TensorFlow backend.
---[-12416, -9920, -13056, -17536, -11264, -21184]

Using TensorFlow backend.
---[-12416, -46400, -30208, -9920, -13056, -17536]

Using TensorFlow backend.
---[-12416, -9920, -13056, -17536, -11264, -21184]

Using TensorFlow backend.
---[-12416, -46400, -30208, -9920, -13056, -17536]

Using TensorFlow backend.
---[-12416, 47168, -9920, -13056, -11264, 47616]

Using TensorFlow backend.
---[-12416, -9920, -13056, -17536, -26048, -11264]

Using TensorFlow backend.
---[-12416, -46400, -30208, -9920, -13056, -17536]

Using TensorFlow backend.
---[-12416, 47168, -9920, -13056, -11264, 47616]

Using TensorFlow backend.
---[-12416, 47168, -9920, -13056, -11264, 47616]

Using TensorFlow backend.
---[-12416, -46400, -30208, -9920, -13056, -17536]

Using TensorFlow backend.
---[-12416, -46400, -30208, -9920, -13056, -17536]

Using TensorFlow backend.
---[-12416, -9920, -13056, -17536, -11264, -21184]

Using TensorFlow backend.
---[-12416, -30208, -9920, -13056, -17536, -26048]

Using TensorFlow backend.
---[-12416, -9920, -13056, -17536, -11264, -21184]

Using TensorFlow backend.
---[-12416, -46400, -30208, -9920, -13056, -17536]

Using TensorFlow backend.
---[-12416, -9920, -13056, -17536, -26048, -11264]

Using TensorFlow backend.
---[-12416, -46400, -30208, -9920, -13056, -17536]

Using TensorFlow backend.
---[-12416, -46400, -30208, -9920, -13056, -17536]

Using TensorFlow backend.
---[-12416, -9920, -13056, -17536, -26048, -11264]

Using TensorFlow backend.
---[-12416, -46400, -30208, -9920, -13056, -17536]

Using TensorFlow backend.
---[-12416, 47168, -9920, -13056, -11264, 47616]

Using TensorFlow backend.
---[-12416, 47168, -9920, -13056, -11264, 47616]

Using TensorFlow backend.
---[-12416, -46400, -30208, -9920, -13056, -17536]

Using TensorFlow backend.
---[47168, 47616, 46528, 32192, 53952, 26752]

Using TensorFlow backend.
---[47168, 47616, 46528, 32192, 53952, 26752]

Using TensorFlow backend.
---[47168, 47616, 46528, 32192, 53952, 26752]

Using TensorFlow backend.
---[-12416, -46400, -30208, -9920, -13056, -17536]

Using TensorFlow backend.
---[-12416, -30208, -9920, -13056, -17536, -26048]

Using TensorFlow backend.
---[-12416, -30208, -9920, -13056, -17536, -26048]

Using TensorFlow backend.
---[-12416, -46400, -30208, -9920, -13056, -17536]

Using TensorFlow backend.
---[-12416, -46400, -30208, -9920, -13056, -17536]

Using TensorFlow backend.
---[-12416, -46400, -30208, -9920, -13056, -17536]

Using TensorFlow backend.
---[47168, 47616, 46528, 32192, 53952, 26752]

Using TensorFlow backend.
---[-12416, -9920, -13056, -17536, -11264, -21184]

Using TensorFlow backend.
---[47168, 47616, 46528, 32192, 53952, 26752]

Using TensorFlow backend.
---[-12416, -9920, -13056, -17536, -11264, -21184]

Using TensorFlow backend.
---[47168, 47616, 46528, 32192, 53952, 26752]

Using TensorFlow backend.
---[-12416, 47168, -9920, -13056, -11264, 47616]

Using TensorFlow backend.
---[-12416, -30208, -9920, -13056, -17536, -26048]

Using TensorFlow backend.
---[-12416, -30208, -9920, -13056, -17536, -26048]

Using TensorFlow backend.
---[-12416, -30208, -9920, -13056, -17536, -26048]

Finished CPU 0 instructions: 200003 cycles: 753304 cumulative IPC: 0.265501 (Simulation time: 4 hr 54 min 19 sec) 

ChampSim completed all CPUs

Region of Interest Statistics

CPU 0 cumulative IPC: 0.265501 instructions: 200003 cycles: 753304
L1D TOTAL     ACCESS:      57474  HIT:      49151  MISS:       8323
L1D LOAD      ACCESS:      37320  HIT:      29434  MISS:       7886
L1D RFO       ACCESS:      20154  HIT:      19717  MISS:        437
L1D PREFETCH  ACCESS:          0  HIT:          0  MISS:          0
L1D WRITEBACK ACCESS:          0  HIT:          0  MISS:          0
L1D PREFETCH  REQUESTED:          0  ISSUED:          0  USEFUL:          0  USELESS:          0
L1D AVERAGE MISS LATENCY: 101.799 cycles
L1I TOTAL     ACCESS:      43998  HIT:      42890  MISS:       1108
L1I LOAD      ACCESS:      43998  HIT:      42890  MISS:       1108
L1I RFO       ACCESS:          0  HIT:          0  MISS:          0
L1I PREFETCH  ACCESS:          0  HIT:          0  MISS:          0
L1I WRITEBACK ACCESS:          0  HIT:          0  MISS:          0
L1I PREFETCH  REQUESTED:          0  ISSUED:          0  USEFUL:          0  USELESS:          0
L1I AVERAGE MISS LATENCY: 63.2635 cycles
L2C TOTAL     ACCESS:       9951  HIT:       5542  MISS:       4409
L2C LOAD      ACCESS:       8994  HIT:       4961  MISS:       4033
L2C RFO       ACCESS:        437  HIT:         61  MISS:        376
L2C PREFETCH  ACCESS:          0  HIT:          0  MISS:          0
L2C WRITEBACK ACCESS:        520  HIT:        520  MISS:          0
L2C PREFETCH  REQUESTED:          0  ISSUED:          0  USEFUL:          0  USELESS:          0
L2C AVERAGE MISS LATENCY: 167.144 cycles
LLC TOTAL     ACCESS:      24540  HIT:       3976  MISS:      20564
LLC LOAD      ACCESS:       4034  HIT:        486  MISS:       3548
LLC RFO       ACCESS:        376  HIT:         37  MISS:        339
LLC PREFETCH  ACCESS:      20124  HIT:       3447  MISS:      16677
LLC WRITEBACK ACCESS:          6  HIT:          6  MISS:          0
LLC PREFETCH  REQUESTED:      20170  ISSUED:      20170  USEFUL:        434  USELESS:        135
LLC AVERAGE MISS LATENCY: 182.89 cycles
Major fault: 0 Minor fault: 1174

DRAM Statistics
 CHANNEL 0
 RQ ROW_BUFFER_HIT:      12981  ROW_BUFFER_MISS:       7583
 DBUS_CONGESTED:       7923
 WQ ROW_BUFFER_HIT:          0  ROW_BUFFER_MISS:          0  FULL:          0

 AVG_CONGESTED_CYCLE: 5

CPU 0 Branch Prediction Accuracy: 94.914% MPKI: 13.3647 Average ROB Occupancy at Mispredict: 25.807

Branch types
NOT_BRANCH: 147231 73.6144%
BRANCH_DIRECT_JUMP: 1792 0.895987%
BRANCH_INDIRECT: 725 0.362495%
BRANCH_CONDITIONAL: 40422 20.2107%
BRANCH_DIRECT_CALL: 3191 1.59548%
BRANCH_INDIRECT_CALL: 1617 0.808488%
BRANCH_RETURN: 4809 2.40446%
BRANCH_OTHER: 0 0%

