
*** ChampSim Multicore Out-of-Order Simulator ***

Warmup Instructions: 1000
Simulation Instructions: 200000
Number of CPUs: 1
LLC sets: 2048
LLC ways: 16
Off-chip DRAM Size: 4096 MB Channels: 1 Width: 64-bit Data Rate: 3200 MT/s

CPU 0 runs /usr/eda/cs259/prakashsatya/ChampSim/dpc3_traces/605.mcf_s-665B.champsimtrace.xz
CPU 0 Bimodal branch predictor
Using TensorFlow backend.
---('Not Trained', 128)

Using TensorFlow backend.
---('Not Trained', 4352)

Using TensorFlow backend.
---('Not Trained', -1920)

Using TensorFlow backend.
---('Not Trained', 7872)

Using TensorFlow backend.
---('Not Trained', 64)

Using TensorFlow backend.
---('Not Trained', -5952)

Using TensorFlow backend.
---('Not Trained', -1792)

Using TensorFlow backend.
---('Not Trained', -128)

Using TensorFlow backend.
---('Not Trained', 1984)

Using TensorFlow backend.
---('Not Trained', 128)

Using TensorFlow backend.
---('Not Trained', 256)

Using TensorFlow backend.
---('Not Trained', 9856)

Using TensorFlow backend.
---('Not Trained', 192)

Using TensorFlow backend.
---('Not Trained', -12096)

Using TensorFlow backend.
---('Not Trained', 12224)

Using TensorFlow backend.
---('Not Trained', -10112)

Using TensorFlow backend.
---('Not Trained', 64)

Using TensorFlow backend.
---('Not Trained', 64)

Using TensorFlow backend.
---('Not Trained', 12288)

Using TensorFlow backend.
---('Not Trained', 5760)

Using TensorFlow backend.
---('Not Trained', -16512)

Using TensorFlow backend.
---('Not Trained', 1536)

Using TensorFlow backend.
---('Not Trained', 8384)

Using TensorFlow backend.
---('Not Trained', 8128)

Using TensorFlow backend.
---('Not Trained', 64)

Using TensorFlow backend.
---('Not Trained', -9920)

Using TensorFlow backend.
---('Not Trained', 16320)

Using TensorFlow backend.
---('Not Trained', -22912)

Using TensorFlow backend.
---('Not Trained', 26624)

Using TensorFlow backend.
---('Not Trained', 3648)

Using TensorFlow backend.
---('Not Trained', 6336)

Using TensorFlow backend.
---('Not Trained', 4224)

Using TensorFlow backend.
---('Not Trained', 1280)

Using TensorFlow backend.
---('Not Trained', 4544)

Using TensorFlow backend.
---('Not Trained', 2560)

Using TensorFlow backend.
---('Not Trained', 8000)

Using TensorFlow backend.
---('Not Trained', -18240)

Using TensorFlow backend.
---('Not Trained', 18624)

Using TensorFlow backend.
---('Not Trained', 6592)

Using TensorFlow backend.
---('Not Trained', -40704)

Using TensorFlow backend.
---('Not Trained', 43392)

Using TensorFlow backend.
---('Not Trained', -2624)

Using TensorFlow backend.
---('Not Trained', -57600)

Using TensorFlow backend.
---('Not Trained', 128)

Using TensorFlow backend.
---('Not Trained', 66048)

Using TensorFlow backend.
---('Not Trained', -31232)

Using TensorFlow backend.
---('Not Trained', 1984)

Using TensorFlow backend.
---('Not Trained', 31360)

Using TensorFlow backend.
---('Not Trained', -59072)

Using TensorFlow backend.
---('Not Trained', 58496)

Using TensorFlow backend.
---('Not Trained', 4992)

Using TensorFlow backend.
---('Not Trained', 2624)

Using TensorFlow backend.
---('Not Trained', -44096)

Using TensorFlow backend.
---('Not Trained', 49344)

Using TensorFlow backend.
---('Not Trained', 4480)

Using TensorFlow backend.
---('Not Trained', 5632)

Using TensorFlow backend.
---('Not Trained', 4416)

Using TensorFlow backend.
---('Not Trained', -84160)

Using TensorFlow backend.
---('Not Trained', -13568)

Using TensorFlow backend.
---('Not Trained', 64)

Using TensorFlow backend.
---('Not Trained', 101312)

Using TensorFlow backend.
---('Not Trained', -117632)

Using TensorFlow backend.
---('Not Trained', 128)

Using TensorFlow backend.
---('Not Trained', 120384)

Using TensorFlow backend.
---('Not Trained', 2944)

Using TensorFlow backend.
---('Not Trained', -45888)

Using TensorFlow backend.
---('Not Trained', 50240)

Using TensorFlow backend.
---('Not Trained', -126144)

Using TensorFlow backend.
---('Not Trained', 64)

Using TensorFlow backend.
---('Not Trained', 1472)

Using TensorFlow backend.
---('Not Trained', 12352)

Using TensorFlow backend.
---('Not Trained', 64)

Using TensorFlow backend.
---('Not Trained', 104960)

Using TensorFlow backend.
---('Not Trained', -75520)

Using TensorFlow backend.
---('Not Trained', 27968)

Using TensorFlow backend.
---('Not Trained', -57344)

Using TensorFlow backend.
---('Not Trained', 64)

Using TensorFlow backend.
---('Not Trained', 116544)

Using TensorFlow backend.
---('Not Trained', -116480)

Using TensorFlow backend.
---('Not Trained', 64)

Using TensorFlow backend.
---('Not Trained', 120064)

Using TensorFlow backend.
---('Not Trained', -120000)

Using TensorFlow backend.
---('Not Trained', 29184)

Using TensorFlow backend.
---('Not Trained', -29120)

Using TensorFlow backend.
---('Not Trained', 64)

Using TensorFlow backend.
---('Not Trained', 40704)

Using TensorFlow backend.
---('Not Trained', -40640)

Using TensorFlow backend.
---('Not Trained', 64)

Using TensorFlow backend.
---('Not Trained', 124096)

Using TensorFlow backend.
---('Not Trained', 4288)

Using TensorFlow backend.
---('Not Trained', -30400)

Using TensorFlow backend.
---('Not Trained', 25344)

Using TensorFlow backend.
---('Not Trained', 10752)


Warmup complete CPU 0 instructions: 1001 cycles: 464 (Simulation time: 0 hr 7 min 15 sec) 

Using TensorFlow backend.
---[512, 256, -320, -192]

Using TensorFlow backend.
---[512, 256, -320, -192]

Using TensorFlow backend.
---[512, 256, 320, 192]

Using TensorFlow backend.
---[512, 256, -320, -192]

Using TensorFlow backend.
---[512, 256, -320, -192]

Using TensorFlow backend.
---[512, 256, -320, -192]

Using TensorFlow backend.
---[256, -320, -192, 320]

Using TensorFlow backend.
---[512, 256, -320, -192]

Using TensorFlow backend.
---[512, 256, -320, -192]

Using TensorFlow backend.
---[512, 256, -320, -192]

Using TensorFlow backend.
---[512, 256, -320, -192]

Using TensorFlow backend.
---[512, 256, -320, -192]

Using TensorFlow backend.
---[512, 256, -192, 320]

Using TensorFlow backend.
---[512, 256, 320, 192]

Using TensorFlow backend.
---[512, 256, -320, -192]

Using TensorFlow backend.
---[512, 256, -320, -192]

Using TensorFlow backend.
---[512, 256, -320, -192]

Using TensorFlow backend.
---[512, 256, -320, -192]

Using TensorFlow backend.
---[512, 256, -320, -192]

Using TensorFlow backend.
---[512, 256, -320, -192]

Using TensorFlow backend.
---[512, 256, -320, -192]

Using TensorFlow backend.
---[512, 256, -320, -192]

Using TensorFlow backend.
---[256, -320, -192, 320]

Using TensorFlow backend.
---[256, -320, -192, 320]

Using TensorFlow backend.
---[256, -320, -192, 320]

Using TensorFlow backend.
---[512, 256, -320, -192]

Using TensorFlow backend.
---[512, 256, -320, -192]

Using TensorFlow backend.
---[512, 256, -320, -192]

Using TensorFlow backend.
---[512, 256, -320, -192]

Using TensorFlow backend.
---[512, 256, -320, -192]

Using TensorFlow backend.
---[512, 256, -320, -192]

Using TensorFlow backend.
---[512, 256, -320, -192]

Using TensorFlow backend.
---[512, 256, -320, -192]

Using TensorFlow backend.
---[256, -320, -192, 192]

Using TensorFlow backend.
---[512, 256, -320, -192]

Using TensorFlow backend.
---[512, 256, -320, -192]

Using TensorFlow backend.
---[512, 256, -320, -192]

Using TensorFlow backend.
---[256, -320, -192, 320]

Using TensorFlow backend.
---[512, 256, -320, -192]

Using TensorFlow backend.
---[512, 256, -320, -192]

Using TensorFlow backend.
---[512, 256, -320, -192]

Using TensorFlow backend.
---[512, 256, 320, 192]

Using TensorFlow backend.
---[512, 256, -320, -192]

Using TensorFlow backend.
---[512, 256, -320, -192]

Using TensorFlow backend.
---[512, 256, -320, -192]

Using TensorFlow backend.
---[512, 256, -320, -192]

Using TensorFlow backend.
---[512, 256, -320, -192]

Using TensorFlow backend.
---[512, 256, -320, -192]

Using TensorFlow backend.
---[512, 256, -320, -192]

Using TensorFlow backend.
---[-320, -192, -128, -64]

Using TensorFlow backend.
---[256, -320, -192, 192]

Using TensorFlow backend.
---[512, 256, -320, -192]

Using TensorFlow backend.
---[512, 256, -320, -192]

Using TensorFlow backend.
---[512, 256, -320, -192]

Using TensorFlow backend.
---[-320, -192, 192, -128]

Using TensorFlow backend.
---[512, 256, -320, -192]

Using TensorFlow backend.
---[-320, -192, -128, -64]

Using TensorFlow backend.
---[512, 256, -320, -192]

Using TensorFlow backend.
---[512, 256, -320, -192]

Using TensorFlow backend.
---[512, 256, -320, -192]

Using TensorFlow backend.
---[-320, -192, -128, -64]

Using TensorFlow backend.
---[512, 256, -320, -192]

Using TensorFlow backend.
---[512, 256, -320, -192]

Using TensorFlow backend.
---[512, 256, -320, -192]

Using TensorFlow backend.
---[512, 256, -320, -192]

Using TensorFlow backend.
---[512, 256, -320, -192]

Using TensorFlow backend.
---[512, 256, -320, -192]

Using TensorFlow backend.
---[512, 256, 320, 192]

Using TensorFlow backend.
---[512, 256, -320, -192]

Using TensorFlow backend.
---[512, 256, -192, 320]

Using TensorFlow backend.
---[-320, -192, -128, -64]

Using TensorFlow backend.
---[512, 256, -320, -192]

Using TensorFlow backend.
---[512, 256, -320, -192]

Using TensorFlow backend.
---[512, 256, 320, 192]

Using TensorFlow backend.
---[512, 256, -320, -192]

Using TensorFlow backend.
---[512, 256, -320, -192]

Using TensorFlow backend.
---[512, 256, -320, -192]

Using TensorFlow backend.
---[512, 256, 320, 192]

Using TensorFlow backend.
---[512, 256, -320, -192]

Using TensorFlow backend.
---[-320, -192, -128, -64]

Using TensorFlow backend.
---[512, 256, -320, -192]

Using TensorFlow backend.
---[512, 256, -320, -192]

Using TensorFlow backend.
---[512, 256, -320, -192]

Using TensorFlow backend.
---[512, 256, -320, -192]

Using TensorFlow backend.
---[512, 256, -320, -192]

Using TensorFlow backend.
---[512, 256, -320, -192]

Using TensorFlow backend.
---[512, 256, -320, -192]

Using TensorFlow backend.
---[512, 256, -320, -192]

Using TensorFlow backend.
---[512, 256, -320, -192]

Using TensorFlow backend.
---[512, 256, -320, -192]

Using TensorFlow backend.
---[512, 256, -320, -192]

Using TensorFlow backend.
---[512, 256, -320, -192]

Using TensorFlow backend.
---[512, 256, 320, 192]

Using TensorFlow backend.
---[512, 256, -320, -192]

Using TensorFlow backend.
---[512, 256, -320, -192]

Using TensorFlow backend.
---[512, 256, -320, -192]

Using TensorFlow backend.
---[-320, -192, -128, -64]

Using TensorFlow backend.
---[512, 256, -320, -192]

Using TensorFlow backend.
---[512, 256, -192, 320]

Using TensorFlow backend.
---[512, 256, -320, -192]

Using TensorFlow backend.
---[512, 256, 320, 192]

Using TensorFlow backend.
---[512, 256, -320, -192]

Using TensorFlow backend.
---[512, 256, -192, 320]

Using TensorFlow backend.
---[512, 256, -320, -192]

Using TensorFlow backend.
---[512, 256, -320, -192]

Using TensorFlow backend.
---[256, -320, -192, 320]

Using TensorFlow backend.
---[512, 256, -192, 320]

Using TensorFlow backend.
---[512, 256, -320, -192]

Using TensorFlow backend.
---[512, 256, -320, -192]

Using TensorFlow backend.
---[512, 256, -320, -192]

Using TensorFlow backend.
---[512, 256, -320, -192]

Using TensorFlow backend.
---[512, 256, -320, -192]

Using TensorFlow backend.
---[512, 256, -320, -192]

Using TensorFlow backend.
---[512, 256, -320, -192]

Using TensorFlow backend.
---[512, 256, -320, -192]

Using TensorFlow backend.
---[256, -320, -192, 320]

Using TensorFlow backend.
---[512, 256, -320, -192]

Using TensorFlow backend.
---[512, 256, -320, -192]

Using TensorFlow backend.
---[512, 256, -320, -192]

Using TensorFlow backend.
---[512, 256, -320, -192]

Using TensorFlow backend.
---[512, 256, -320, -192]

Using TensorFlow backend.
---[512, 256, -320, -192]

Using TensorFlow backend.
---[512, 256, -320, -192]

Using TensorFlow backend.
---[512, 256, -320, -192]

Using TensorFlow backend.
---[512, 256, -320, -192]

Using TensorFlow backend.
---[512, 256, -320, -192]

Using TensorFlow backend.
---[512, 256, -320, -192]

Using TensorFlow backend.
---[512, 256, -320, -192]

Using TensorFlow backend.
---[512, 256, -320, -192]

Using TensorFlow backend.
---[512, 256, -320, -192]

Using TensorFlow backend.
---[-320, -192, -128, -64]

Using TensorFlow backend.
---[512, 256, 320, 192]

Using TensorFlow backend.
---[512, 256, -320, -192]

Using TensorFlow backend.
---[512, 256, -320, -192]

Using TensorFlow backend.
---[512, 256, -320, -192]

Using TensorFlow backend.
---[512, 256, -320, -192]

Using TensorFlow backend.
---[512, 256, -320, -192]

Using TensorFlow backend.
---[512, 256, -320, -192]

Using TensorFlow backend.
---[512, 256, -320, -192]

Using TensorFlow backend.
---[512, 256, -320, -192]

Using TensorFlow backend.
---[512, 256, -320, -192]

Using TensorFlow backend.
---[512, 256, -320, -192]

Using TensorFlow backend.
---[512, 256, -320, -192]

Using TensorFlow backend.
---[512, 256, -320, -192]

Using TensorFlow backend.
---[512, 256, -320, -192]

Using TensorFlow backend.
---[512, 256, -320, -192]

Using TensorFlow backend.
---[-320, -192, -128, -64]

Using TensorFlow backend.
---[512, 256, -320, -192]

Using TensorFlow backend.
---[512, 256, -320, -192]

Using TensorFlow backend.
---[512, 256, 320, 192]

Using TensorFlow backend.
---[512, 256, -320, -192]

Using TensorFlow backend.
---[512, 256, -320, -192]

Using TensorFlow backend.
---[512, 256, 320, 192]

Using TensorFlow backend.
---[512, 256, -320, -192]

Using TensorFlow backend.
---[512, 256, -320, -192]

Using TensorFlow backend.
---[512, 256, -320, -192]

Using TensorFlow backend.
---[512, 256, -320, -192]

Using TensorFlow backend.
---[512, 256, -320, -192]

Using TensorFlow backend.
---[512, 256, -320, -192]

Using TensorFlow backend.
---[512, 256, -320, -192]

Using TensorFlow backend.
---[512, 256, -320, -192]

Using TensorFlow backend.
---[512, 256, -320, -192]

Using TensorFlow backend.
---[512, 256, -320, -192]

Using TensorFlow backend.
---[512, 256, -320, -192]

Using TensorFlow backend.
---[512, 256, -320, -192]

Using TensorFlow backend.
---[512, 256, -320, -192]

Using TensorFlow backend.
---[512, 256, -320, -192]

Using TensorFlow backend.
---[256, -320, -192, 320]

Using TensorFlow backend.
---[512, 256, -320, -192]

Using TensorFlow backend.
---[256, -320, -192, 192]

Using TensorFlow backend.
---[512, 256, 320, 192]

Using TensorFlow backend.
---[512, 256, -320, -192]

Using TensorFlow backend.
---[-320, -192, -128, -64]

Using TensorFlow backend.
---[512, 256, -320, -192]

Using TensorFlow backend.
---[512, 256, -320, -192]

Using TensorFlow backend.
---[256, -320, -192, 192]

Using TensorFlow backend.
---[-320, -192, -128, -64]

Using TensorFlow backend.
---[-320, -192, -128, -64]

Using TensorFlow backend.
---[512, 256, -320, -192]

Using TensorFlow backend.
---[512, 256, 320, 192]

Using TensorFlow backend.
---[512, 256, -320, -192]

Using TensorFlow backend.
---[512, 256, -320, -192]

Using TensorFlow backend.
---[512, 256, -320, -192]

Using TensorFlow backend.
---[512, 256, -320, -192]

Using TensorFlow backend.
---[512, 256, -320, -192]

Using TensorFlow backend.
---[512, 256, -320, -192]

Using TensorFlow backend.
---[512, 256, -320, -192]

Using TensorFlow backend.
---[512, 256, -320, -192]

Using TensorFlow backend.
---[512, 256, -320, -192]

Using TensorFlow backend.
---[512, 256, -320, -192]

Using TensorFlow backend.
---[512, 256, -320, -192]

Using TensorFlow backend.
---[512, 256, -320, -192]

Using TensorFlow backend.
---[512, 256, -320, -192]

Using TensorFlow backend.
---[512, 256, -320, -192]

Using TensorFlow backend.
---[512, 256, -320, -192]

Using TensorFlow backend.
---[512, 256, -320, -192]

Using TensorFlow backend.
---[512, 256, 320, 192]

Using TensorFlow backend.
---[512, 256, 320, 192]

Using TensorFlow backend.
---[512, 256, -320, -192]

Using TensorFlow backend.
---[512, 256, -320, -192]

Using TensorFlow backend.
---[-320, -192, -128, -64]

Using TensorFlow backend.
---[512, 256, -320, -192]

Using TensorFlow backend.
---[512, 256, -320, -192]

Using TensorFlow backend.
---[256, -320, -192, 192]

Using TensorFlow backend.
---[512, 256, -320, -192]

Using TensorFlow backend.
---[512, 256, -320, -192]

Using TensorFlow backend.
---[512, 256, -320, -192]

Using TensorFlow backend.
---[512, 256, -192, 320]

Using TensorFlow backend.
---[512, 256, -192, 320]

Using TensorFlow backend.
---[512, 256, -320, -192]

Using TensorFlow backend.
---[512, 256, -320, -192]

Using TensorFlow backend.
---[512, 256, -320, -192]

Using TensorFlow backend.
---[512, 256, -320, -192]

Using TensorFlow backend.
---[512, 256, -320, -192]

Using TensorFlow backend.
---[512, 256, 320, 192]

Using TensorFlow backend.
---[512, 256, -320, -192]

Using TensorFlow backend.
---[512, 256, -320, -192]

Using TensorFlow backend.
---[512, 256, -320, -192]

Using TensorFlow backend.
---[512, 256, -320, -192]

Using TensorFlow backend.
---[512, 256, -320, -192]

Using TensorFlow backend.
---[512, 256, -320, -192]

Using TensorFlow backend.
---[512, 256, 320, 192]

Using TensorFlow backend.
---[512, 256, -320, -192]

Using TensorFlow backend.
---[512, 256, -192, 320]

Using TensorFlow backend.
---[512, 256, -320, -192]

Using TensorFlow backend.
---[512, 256, -320, -192]

Using TensorFlow backend.
---[512, 256, -320, -192]

Using TensorFlow backend.
---[512, 256, 320, 192]

Using TensorFlow backend.
---[512, 256, -320, -192]

Using TensorFlow backend.
---[512, 256, -320, -192]

Using TensorFlow backend.
---[-320, -192, -128, -64]

Using TensorFlow backend.
---[512, 256, -320, -192]

Using TensorFlow backend.
---[512, 256, -320, -192]

Using TensorFlow backend.
---[-320, -192, -128, -64]

Using TensorFlow backend.
---[512, 256, -320, -192]

Using TensorFlow backend.
---[512, 256, -320, -192]

Using TensorFlow backend.
---[512, 256, -320, -192]

Using TensorFlow backend.
---[512, 256, -320, -192]

Using TensorFlow backend.
---[256, -320, -192, 320]

Using TensorFlow backend.
---[512, 256, -320, -192]

Using TensorFlow backend.
---[512, 256, -320, -192]

Using TensorFlow backend.
---[512, 256, 320, 192]

Using TensorFlow backend.
---[512, 256, -320, -192]

Using TensorFlow backend.
---[512, 256, -320, -192]

Using TensorFlow backend.
---[512, 256, -320, -192]

Using TensorFlow backend.
---[512, 256, -320, -192]

Using TensorFlow backend.
---[-320, -192, 192, -128]

Using TensorFlow backend.
---[512, 256, -320, -192]

Using TensorFlow backend.
---[512, 256, -320, -192]

Using TensorFlow backend.
---[512, 256, -320, -192]

Using TensorFlow backend.
---[512, 256, -320, -192]

Using TensorFlow backend.
---[512, 256, -320, -192]

Using TensorFlow backend.
---[512, 256, -320, -192]

Using TensorFlow backend.
---[-320, -192, 192, -128]

Using TensorFlow backend.
---[512, 256, 320, 192]

Using TensorFlow backend.
---[512, 256, -320, -192]

Using TensorFlow backend.
---[512, 256, -320, -192]

Using TensorFlow backend.
---[512, 256, -320, -192]

Using TensorFlow backend.
---[512, 256, -320, -192]

Using TensorFlow backend.
---[512, 256, -320, -192]

Using TensorFlow backend.
---[512, 256, -320, -192]

Using TensorFlow backend.
---[512, 256, -320, -192]

Using TensorFlow backend.
---[-320, -192, -128, -64]

Using TensorFlow backend.
---[-320, -192, -128, -64]

Using TensorFlow backend.
---[512, 256, -320, -192]

Using TensorFlow backend.
---[512, 256, -320, -192]

Using TensorFlow backend.
---[256, -320, -192, 320]

Using TensorFlow backend.
---[512, 256, -320, -192]

Using TensorFlow backend.
---[512, 256, -320, -192]

Using TensorFlow backend.
---[256, -320, -192, 320]

Using TensorFlow backend.
---[256, -320, -192, 320]

Using TensorFlow backend.
---[-320, -192, 192, -128]

Using TensorFlow backend.
---[512, 256, -320, -192]

Using TensorFlow backend.
---[512, 256, -320, -192]

Using TensorFlow backend.
---[512, 256, -320, -192]

Using TensorFlow backend.
---[512, 256, -320, -192]

Using TensorFlow backend.
---[512, 256, -320, -192]

Using TensorFlow backend.
---[512, 256, -320, -192]

Using TensorFlow backend.
---[512, 256, -320, -192]

Using TensorFlow backend.
---[512, 256, -320, -192]

Using TensorFlow backend.
---[512, 256, -320, -192]

Using TensorFlow backend.
---[512, 256, -320, -192]

Using TensorFlow backend.
---[256, -320, -192, 320]

Using TensorFlow backend.
---[-320, -192, 192, -128]

Using TensorFlow backend.
---[512, 256, -320, -192]

Using TensorFlow backend.
---[256, -320, -192, 320]

Using TensorFlow backend.
---[512, 256, -320, -192]

Using TensorFlow backend.
---[512, 256, -320, -192]

Using TensorFlow backend.
---[512, 256, -320, -192]

Using TensorFlow backend.
---[512, 256, -320, -192]

Using TensorFlow backend.
---[512, 256, -320, -192]

Using TensorFlow backend.
---[512, 256, -320, -192]

Using TensorFlow backend.
---[512, 256, -320, -192]

Using TensorFlow backend.
---[512, 256, -320, -192]

Using TensorFlow backend.
---[512, 256, -320, -192]

Using TensorFlow backend.
---[512, 256, -320, -192]

Using TensorFlow backend.
---[-320, -192, 192, -128]

Using TensorFlow backend.
---[-320, -192, -128, -64]

Using TensorFlow backend.
---[512, 256, -320, -192]

Using TensorFlow backend.
---[512, 256, -320, -192]

Using TensorFlow backend.
---[512, 256, -320, -192]

Using TensorFlow backend.
---[512, 256, -320, -192]

Using TensorFlow backend.
---[512, 256, -320, -192]

Using TensorFlow backend.
---[512, 256, -320, -192]

Using TensorFlow backend.
---[512, 256, -320, -192]

Using TensorFlow backend.
---[512, 256, -320, -192]

Using TensorFlow backend.
---[512, 256, 320, 192]

Using TensorFlow backend.
---[-320, -192, -128, -64]

Using TensorFlow backend.
---[512, 256, -320, -192]

Using TensorFlow backend.
---[512, 256, -320, -192]

Using TensorFlow backend.
---[512, 256, -192, 320]

Using TensorFlow backend.
---[512, 256, -320, -192]

Using TensorFlow backend.
---[512, 256, -320, -192]

Using TensorFlow backend.
---[512, 256, -320, -192]

Using TensorFlow backend.
---[256, -320, -192, 320]

Using TensorFlow backend.
---[512, 256, -320, -192]

Using TensorFlow backend.
---[512, 256, -320, -192]

Using TensorFlow backend.
---[512, 256, -192, 320]

Using TensorFlow backend.
---[512, 256, -320, -192]

Using TensorFlow backend.
---[256, -320, -192, 320]

Using TensorFlow backend.
---[256, -320, -192, 192]

Using TensorFlow backend.
---[512, 256, -320, -192]

Using TensorFlow backend.
---[512, 256, -320, -192]

Using TensorFlow backend.
---[512, 256, -320, -192]

Using TensorFlow backend.
---[512, 256, -320, -192]

Using TensorFlow backend.
---[256, -320, -192, 320]

Using TensorFlow backend.
---[512, 256, -320, -192]

Using TensorFlow backend.
---[512, 256, -320, -192]

Using TensorFlow backend.
---[512, 256, -320, -192]

Using TensorFlow backend.
---[512, 256, -320, -192]

Using TensorFlow backend.
---[512, 256, -320, -192]

Using TensorFlow backend.
---[512, 256, -320, -192]

Using TensorFlow backend.
---[512, 256, -320, -192]

Using TensorFlow backend.
---[512, 256, -320, -192]

Using TensorFlow backend.
---[512, 256, -320, -192]

Using TensorFlow backend.
---[512, 256, -320, -192]

Using TensorFlow backend.
---[256, -320, -192, 320]

Using TensorFlow backend.
---[512, 256, -320, -192]

Using TensorFlow backend.
---[512, 256, -320, -192]

Using TensorFlow backend.
---[512, 256, -320, -192]

Using TensorFlow backend.
---[512, 256, -320, -192]

Using TensorFlow backend.
---[512, 256, -320, -192]

Using TensorFlow backend.
---[512, 256, -320, -192]

Using TensorFlow backend.
---[512, 256, -320, -192]

Using TensorFlow backend.
---[512, 256, -192, 320]

Using TensorFlow backend.
---[512, 256, -320, -192]

Using TensorFlow backend.
---[512, 256, -320, -192]

Using TensorFlow backend.
---[-320, -192, -128, -64]

Using TensorFlow backend.
---[256, -320, -192, 320]

Using TensorFlow backend.
---[512, 256, -320, -192]

Using TensorFlow backend.
---[512, 256, -320, -192]

Using TensorFlow backend.
---[-320, -192, 192, -128]

Using TensorFlow backend.
---[512, 256, -320, -192]

Using TensorFlow backend.
---[256, -320, -192, 320]

Using TensorFlow backend.
---[512, 256, -320, -192]

Using TensorFlow backend.
---[512, 256, -320, -192]

Using TensorFlow backend.
---[512, 256, -192, 320]

Using TensorFlow backend.
---[512, 256, -320, -192]

Using TensorFlow backend.
---[512, 256, -320, -192]

Using TensorFlow backend.
---[512, 256, -320, -192]

Using TensorFlow backend.
---[-320, -192, -128, -64]

Using TensorFlow backend.
---[512, 256, -320, -192]

Using TensorFlow backend.
---[512, 256, -320, -192]

Using TensorFlow backend.
---[512, 256, -320, -192]

Using TensorFlow backend.
---[512, 256, -320, -192]

Using TensorFlow backend.
---[512, 256, -320, -192]

Using TensorFlow backend.
---[512, 256, -320, -192]

Using TensorFlow backend.
---[512, 256, 320, 192]

Using TensorFlow backend.
---[512, 256, -320, -192]

Using TensorFlow backend.
---[512, 256, -320, -192]

Using TensorFlow backend.
---[512, 256, -320, -192]

Using TensorFlow backend.
---[512, 256, -320, -192]

Using TensorFlow backend.
---[512, 256, -320, -192]

Using TensorFlow backend.
---[512, 256, -320, -192]

Using TensorFlow backend.
---[512, 256, -320, -192]

Using TensorFlow backend.
---[512, 256, -320, -192]

Using TensorFlow backend.
---[512, 256, -320, -192]

Using TensorFlow backend.
---[512, 256, -320, -192]

Using TensorFlow backend.
---[512, 256, -320, -192]

Using TensorFlow backend.
---[512, 256, -320, -192]

Using TensorFlow backend.
---[256, -320, -192, 320]

Using TensorFlow backend.
---[512, 256, -320, -192]

Using TensorFlow backend.
---[512, 256, -320, -192]

Using TensorFlow backend.
---[512, 256, 320, 192]

Using TensorFlow backend.
---[-320, -192, -128, -64]

Using TensorFlow backend.
---[256, -320, -192, 192]

Using TensorFlow backend.
---[512, 256, -320, -192]

Using TensorFlow backend.
---[512, 256, -320, -192]

Using TensorFlow backend.
---[256, -320, -192, 320]

Using TensorFlow backend.
---[256, -320, -192, 320]

Using TensorFlow backend.
---[512, 256, -320, -192]

Using TensorFlow backend.
---[512, 256, -320, -192]

Using TensorFlow backend.
---[-320, -192, -128, -64]

Using TensorFlow backend.
---[512, 256, -320, -192]

Using TensorFlow backend.
---[256, -320, -192, 320]

Using TensorFlow backend.
---[512, 256, -320, -192]

Using TensorFlow backend.
---[512, 256, -320, -192]

Using TensorFlow backend.
---[512, 256, -320, -192]

Using TensorFlow backend.
---[512, 256, -320, -192]

Using TensorFlow backend.
---[256, -320, -192, 320]

Using TensorFlow backend.
---[512, 256, -320, -192]

Using TensorFlow backend.
---[512, 256, -320, -192]

Using TensorFlow backend.
---[512, 256, -320, -192]

Using TensorFlow backend.
---[512, 256, -320, -192]

Using TensorFlow backend.
---[512, 256, -320, -192]

Using TensorFlow backend.
---[512, 256, -320, -192]

Using TensorFlow backend.
---[512, 256, -320, -192]

Using TensorFlow backend.
---[512, 256, -320, -192]

Using TensorFlow backend.
---[512, 256, -320, -192]

Using TensorFlow backend.
---[512, 256, -320, -192]

Using TensorFlow backend.
---[512, 256, 320, 192]

Using TensorFlow backend.
---[512, 256, -320, -192]

Using TensorFlow backend.
---[512, 256, -320, -192]

Using TensorFlow backend.
---[-320, -192, -128, -64]

Using TensorFlow backend.
---[512, 256, -320, -192]

Using TensorFlow backend.
---[-320, -192, 192, -128]

Using TensorFlow backend.
---[512, 256, -320, -192]

Using TensorFlow backend.
---[-320, -192, -128, -64]

Using TensorFlow backend.
---[512, 256, -320, -192]

Using TensorFlow backend.
---[512, 256, -320, -192]

Using TensorFlow backend.
---[512, 256, 320, 192]

Using TensorFlow backend.
---[256, -320, -192, 320]

Using TensorFlow backend.
---[512, 256, -320, -192]

Using TensorFlow backend.
---[256, -320, -192, 192]

Using TensorFlow backend.
---[512, 256, -320, -192]

Using TensorFlow backend.
---[512, 256, -320, -192]

Using TensorFlow backend.
---[512, 256, -320, -192]

Using TensorFlow backend.
---[512, 256, -320, -192]

Using TensorFlow backend.
---[512, 256, -320, -192]

Using TensorFlow backend.
---[512, 256, -320, -192]

Using TensorFlow backend.
---[512, 256, -320, -192]

Using TensorFlow backend.
---[512, 256, -320, -192]

Using TensorFlow backend.
---[512, 256, -320, -192]

Using TensorFlow backend.
---[512, 256, -320, -192]

Using TensorFlow backend.
---[512, 256, -320, -192]

Using TensorFlow backend.
---[512, 256, -320, -192]

Using TensorFlow backend.
---[512, 256, -320, -192]

Using TensorFlow backend.
---[512, 256, -320, -192]

Using TensorFlow backend.
---[256, -320, -192, 192]

Using TensorFlow backend.
---[-320, -192, 192, -128]

Using TensorFlow backend.
---[512, 256, -320, -192]

Using TensorFlow backend.
---[512, 256, -320, -192]

Using TensorFlow backend.
---[512, 256, -320, -192]

Using TensorFlow backend.
---[512, 256, -320, -192]

Using TensorFlow backend.
---[512, 256, -320, -192]

Using TensorFlow backend.
---[-320, -192, -128, -64]

Using TensorFlow backend.
---[512, 256, -320, -192]

Using TensorFlow backend.
---[512, 256, -320, -192]

Using TensorFlow backend.
---[512, 256, -320, -192]

Using TensorFlow backend.
---[512, 256, -320, -192]

Using TensorFlow backend.
---[512, 256, -320, -192]

Using TensorFlow backend.
---[512, 256, -192, 320]

Using TensorFlow backend.
---[512, 256, -320, -192]

Using TensorFlow backend.
---[512, 256, -320, -192]

Using TensorFlow backend.
---[512, 256, -320, -192]

Using TensorFlow backend.
---[512, 256, 320, 192]

Using TensorFlow backend.
---[512, 256, -320, -192]

Using TensorFlow backend.
---[512, 256, -320, -192]

Using TensorFlow backend.
---[256, -320, -192, 320]

Using TensorFlow backend.
---[256, -320, -192, 320]

Using TensorFlow backend.
---[512, 256, -320, -192]

Using TensorFlow backend.
---[512, 256, -320, -192]

Using TensorFlow backend.
---[512, 256, -320, -192]

Using TensorFlow backend.
---[512, 256, -320, -192]

Using TensorFlow backend.
---[512, 256, -320, -192]

Using TensorFlow backend.
---[512, 256, -320, -192]

Using TensorFlow backend.
---[512, 256, -320, -192]

Using TensorFlow backend.
---[512, 256, -192, 320]

Using TensorFlow backend.
---[512, 256, -192, 320]

Using TensorFlow backend.
---[512, 256, -320, -192]

Using TensorFlow backend.
---[512, 256, -320, -192]

Using TensorFlow backend.
---[512, 256, -320, -192]

Using TensorFlow backend.
---[512, 256, -320, -192]

Using TensorFlow backend.
---[512, 256, -320, -192]

Using TensorFlow backend.
---[512, 256, -320, -192]

Using TensorFlow backend.
---[512, 256, -320, -192]

Using TensorFlow backend.
---[512, 256, -320, -192]

Using TensorFlow backend.
---[512, 256, -320, -192]

Using TensorFlow backend.
---[512, 256, -320, -192]

Using TensorFlow backend.
---[512, 256, -320, -192]

Using TensorFlow backend.
---[512, 256, -320, -192]

Using TensorFlow backend.
---[512, 256, -320, -192]

Using TensorFlow backend.
---[512, 256, -320, -192]

Using TensorFlow backend.
---[512, 256, -320, -192]

Using TensorFlow backend.
---[-320, -192, -128, -64]

Using TensorFlow backend.
---[512, 256, 320, 192]

Using TensorFlow backend.
---[512, 256, -192, 320]

Using TensorFlow backend.
---[512, 256, 320, 192]

Using TensorFlow backend.
---[512, 256, -320, -192]

Using TensorFlow backend.
---[512, 256, -320, -192]

Using TensorFlow backend.
---[512, 256, -320, -192]

Using TensorFlow backend.
---[512, 256, -320, -192]

Using TensorFlow backend.
---[-320, -192, -128, -64]

Using TensorFlow backend.
---[-320, -192, -128, -64]

Using TensorFlow backend.
---[512, 256, -320, -192]

Using TensorFlow backend.
---[512, 256, -320, -192]

Using TensorFlow backend.
---[256, -320, -192, 320]

Using TensorFlow backend.
---[512, 256, -320, -192]

Using TensorFlow backend.
---[256, -320, -192, 192]

Using TensorFlow backend.
---[512, 256, -320, -192]

Using TensorFlow backend.
---[512, 256, -320, -192]

Using TensorFlow backend.
---[512, 256, -320, -192]

Using TensorFlow backend.
---[512, 256, 320, 192]

Using TensorFlow backend.
---[512, 256, 320, 192]

Using TensorFlow backend.
---[-320, -192, 192, -128]

Using TensorFlow backend.
---[512, 256, 320, 192]

Using TensorFlow backend.
---[512, 256, -320, -192]

Using TensorFlow backend.
---[512, 256, -320, -192]

Using TensorFlow backend.
---[512, 256, -320, -192]

Using TensorFlow backend.
---[512, 256, -320, -192]

Using TensorFlow backend.
---[512, 256, -320, -192]

Using TensorFlow backend.
---[512, 256, -320, -192]

Using TensorFlow backend.
---[512, 256, -320, -192]

Using TensorFlow backend.
---[512, 256, -320, -192]

Using TensorFlow backend.
---[512, 256, -320, -192]

Using TensorFlow backend.
---[512, 256, -320, -192]

Using TensorFlow backend.
---[512, 256, -320, -192]

Using TensorFlow backend.
---[512, 256, -320, -192]

Using TensorFlow backend.
---[512, 256, -320, -192]

Using TensorFlow backend.
---[512, 256, -320, -192]

Using TensorFlow backend.
---[512, 256, -320, -192]

Using TensorFlow backend.
---[512, 256, -320, -192]

Using TensorFlow backend.
---[512, 256, -320, -192]

Using TensorFlow backend.
---[512, 256, -320, -192]

Using TensorFlow backend.
---[512, 256, -320, -192]

Using TensorFlow backend.
---[512, 256, -320, -192]

Using TensorFlow backend.
---[-320, -192, -128, -64]

Using TensorFlow backend.
---[512, 256, -320, -192]

Using TensorFlow backend.
---[512, 256, -320, -192]

Using TensorFlow backend.
---[512, 256, 320, 192]

Using TensorFlow backend.
---[512, 256, -320, -192]

Using TensorFlow backend.
---[256, -320, -192, 192]

Using TensorFlow backend.
---[512, 256, -320, -192]

Using TensorFlow backend.
---[512, 256, -320, -192]

Using TensorFlow backend.
---[512, 256, -320, -192]

Using TensorFlow backend.
---[512, 256, -320, -192]

Using TensorFlow backend.
---[512, 256, -320, -192]

Using TensorFlow backend.
---[512, 256, -320, -192]

Using TensorFlow backend.
---[512, 256, 320, 192]

Using TensorFlow backend.
---[512, 256, -320, -192]

Using TensorFlow backend.
---[512, 256, 320, 192]

Using TensorFlow backend.
---[256, -320, -192, 320]

Using TensorFlow backend.
---[512, 256, -320, -192]

Using TensorFlow backend.
---[512, 256, -320, -192]

Using TensorFlow backend.
---[512, 256, -320, -192]

Using TensorFlow backend.
---[512, 256, -320, -192]

Using TensorFlow backend.
---[512, 256, -320, -192]

Using TensorFlow backend.
---[512, 256, -320, -192]

Using TensorFlow backend.
---[512, 256, -192, 320]

Using TensorFlow backend.
---[256, -320, -192, 320]

Using TensorFlow backend.
---[512, 256, -320, -192]

Using TensorFlow backend.
---[512, 256, -320, -192]

Using TensorFlow backend.
---[512, 256, -320, -192]

Using TensorFlow backend.
---[512, 256, -320, -192]

Using TensorFlow backend.
---[512, 256, -320, -192]

Using TensorFlow backend.
---[512, 256, -320, -192]

Using TensorFlow backend.
---[512, 256, -320, -192]

Using TensorFlow backend.
---[256, -320, -192, 192]

Using TensorFlow backend.
---[512, 256, -320, -192]

Using TensorFlow backend.
---[512, 256, -320, -192]

Using TensorFlow backend.
---[512, 256, -320, -192]

Using TensorFlow backend.
---[512, 256, -320, -192]

Using TensorFlow backend.
---[512, 256, -320, -192]

Using TensorFlow backend.
---[512, 256, -320, -192]

Using TensorFlow backend.
---[512, 256, -320, -192]

Using TensorFlow backend.
---[512, 256, -320, -192]

Using TensorFlow backend.
---[512, 256, -320, -192]

Using TensorFlow backend.
---[512, 256, -320, -192]

Using TensorFlow backend.
---[512, 256, -320, -192]

Using TensorFlow backend.
---[256, -320, -192, 192]

Using TensorFlow backend.
---[512, 256, -320, -192]

Using TensorFlow backend.
---[512, 256, -320, -192]

Using TensorFlow backend.
---[512, 256, -320, -192]

Using TensorFlow backend.
---[256, -320, -192, 192]

Using TensorFlow backend.
---[512, 256, -320, -192]

Using TensorFlow backend.
---[-320, -192, -128, -64]

Using TensorFlow backend.
---[512, 256, 320, 192]

Using TensorFlow backend.
---[512, 256, -320, -192]

Using TensorFlow backend.
---[512, 256, -320, -192]

Using TensorFlow backend.
---[512, 256, -320, -192]

Using TensorFlow backend.
---[512, 256, -320, -192]

Using TensorFlow backend.
---[512, 256, -320, -192]

Using TensorFlow backend.
---[512, 256, -320, -192]

Using TensorFlow backend.
---[512, 256, -320, -192]

Using TensorFlow backend.
---[512, 256, -320, -192]

Using TensorFlow backend.
---[-320, -192, -128, -64]

Using TensorFlow backend.
---[-320, -192, -128, -64]

Using TensorFlow backend.
---[-320, -192, -128, -64]

Using TensorFlow backend.
---[512, 256, 320, 192]

Using TensorFlow backend.
---[512, 256, -320, -192]

Using TensorFlow backend.
---[-320, -192, -128, -64]

Using TensorFlow backend.
---[-320, -192, 192, -128]

Using TensorFlow backend.
---[512, 256, -320, -192]

Using TensorFlow backend.
---[512, 256, -192, 320]

Using TensorFlow backend.
---[-320, -192, -128, -64]

Using TensorFlow backend.
---[512, 256, 320, 192]

Using TensorFlow backend.
---[512, 256, -320, -192]

Using TensorFlow backend.
---[512, 256, -320, -192]

Using TensorFlow backend.
---[256, -320, -192, 320]

Using TensorFlow backend.
---[512, 256, -320, -192]

Using TensorFlow backend.
---[512, 256, -320, -192]

Using TensorFlow backend.
---[512, 256, -320, -192]

Using TensorFlow backend.
---[512, 256, -320, -192]

Using TensorFlow backend.
---[512, 256, -320, -192]

Using TensorFlow backend.
---[512, 256, -320, -192]

Using TensorFlow backend.
---[-320, -192, -128, -64]

Using TensorFlow backend.
---[512, 256, -320, -192]

Using TensorFlow backend.
---[512, 256, -320, -192]

Using TensorFlow backend.
---[512, 256, -320, -192]

Using TensorFlow backend.
---[512, 256, -320, -192]

Using TensorFlow backend.
---[512, 256, -320, -192]

Using TensorFlow backend.
---[512, 256, -320, -192]

Using TensorFlow backend.
---[512, 256, -320, -192]

Using TensorFlow backend.
---[512, 256, 320, 192]

Using TensorFlow backend.
---[512, 256, -320, -192]

Using TensorFlow backend.
---[512, 256, 320, 192]

Using TensorFlow backend.
---[512, 256, -320, -192]

Using TensorFlow backend.
---[512, 256, -320, -192]

Using TensorFlow backend.
---[512, 256, -320, -192]

Using TensorFlow backend.
---[512, 256, 320, 192]

Using TensorFlow backend.
---[512, 256, -320, -192]

Using TensorFlow backend.
---[512, 256, -320, -192]

Using TensorFlow backend.
---[512, 256, -320, -192]

Using TensorFlow backend.
---[512, 256, -320, -192]

Using TensorFlow backend.
---[512, 256, -320, -192]

Using TensorFlow backend.
---[512, 256, -320, -192]

Using TensorFlow backend.
---[512, 256, -320, -192]

Using TensorFlow backend.
---[512, 256, -320, -192]

Using TensorFlow backend.
---[512, 256, -320, -192]

Using TensorFlow backend.
---[512, 256, -320, -192]

Using TensorFlow backend.
---[256, -320, -192, 192]

Using TensorFlow backend.
---[256, -320, -192, 320]

Using TensorFlow backend.
---[512, 256, -320, -192]

Using TensorFlow backend.
---[512, 256, -320, -192]

Using TensorFlow backend.
---[512, 256, -320, -192]

Using TensorFlow backend.
---[256, -320, -192, 320]

Using TensorFlow backend.
---[512, 256, -320, -192]

Using TensorFlow backend.
---[512, 256, -320, -192]

Using TensorFlow backend.
---[512, 256, -320, -192]

Using TensorFlow backend.
---[512, 256, -320, -192]

Using TensorFlow backend.
---[512, 256, -320, -192]

Using TensorFlow backend.
---[512, 256, -320, -192]

Using TensorFlow backend.
---[512, 256, -320, -192]

Using TensorFlow backend.
---[512, 256, -320, -192]

Using TensorFlow backend.
---[512, 256, -320, -192]

Using TensorFlow backend.
---[512, 256, -320, -192]

Using TensorFlow backend.
---[512, 256, -320, -192]

Using TensorFlow backend.
---[512, 256, -320, -192]

Using TensorFlow backend.
---[512, 256, -320, -192]

Using TensorFlow backend.
---[512, 256, -320, -192]

Using TensorFlow backend.
---[-320, -192, -128, -64]

Using TensorFlow backend.
---[512, 256, -320, -192]

Using TensorFlow backend.
---[512, 256, -320, -192]

Using TensorFlow backend.
---[512, 256, 320, 192]

Using TensorFlow backend.
---[512, 256, -320, -192]

Using TensorFlow backend.
---[-320, -192, -128, -64]

Using TensorFlow backend.
---[512, 256, -320, -192]

Using TensorFlow backend.
---[-320, -192, -128, -64]

Using TensorFlow backend.
---[512, 256, -320, -192]

Using TensorFlow backend.
---[512, 256, -320, -192]

Using TensorFlow backend.
---[512, 256, -320, -192]

Using TensorFlow backend.
---[512, 256, -320, -192]

Using TensorFlow backend.
---[512, 256, -192, 320]

Using TensorFlow backend.
---[512, 256, -320, -192]

Using TensorFlow backend.
---[512, 256, -320, -192]

Using TensorFlow backend.
---[512, 256, -320, -192]

Using TensorFlow backend.
---[512, 256, -320, -192]

Using TensorFlow backend.
---[512, 256, -320, -192]

Using TensorFlow backend.
---[256, -320, -192, 192]

Using TensorFlow backend.
---[512, 256, -320, -192]

Using TensorFlow backend.
---[512, 256, -320, -192]

Using TensorFlow backend.
---[512, 256, -320, -192]

Using TensorFlow backend.
---[512, 256, -192, 320]

Using TensorFlow backend.
---[512, 256, -320, -192]

Using TensorFlow backend.
---[512, 256, -320, -192]

Using TensorFlow backend.
---[-320, -192, -128, -64]

Using TensorFlow backend.
---[512, 256, -320, -192]

Using TensorFlow backend.
---[512, 256, -320, -192]

Using TensorFlow backend.
---[512, 256, -320, -192]

Using TensorFlow backend.
---[512, 256, -320, -192]

Using TensorFlow backend.
---[512, 256, -320, -192]

Using TensorFlow backend.
---[512, 256, -320, -192]

Using TensorFlow backend.
---[512, 256, -320, -192]

Using TensorFlow backend.
---[512, 256, -320, -192]

Using TensorFlow backend.
---[512, 256, -320, -192]

Using TensorFlow backend.
---[512, 256, 320, 192]

Using TensorFlow backend.
---[512, 256, -320, -192]

Using TensorFlow backend.
---[256, -320, -192, 192]

Using TensorFlow backend.
---[512, 256, -320, -192]

Using TensorFlow backend.
---[512, 256, -320, -192]

Using TensorFlow backend.
---[512, 256, -320, -192]

Using TensorFlow backend.
---[512, 256, -320, -192]

Using TensorFlow backend.
---[512, 256, -320, -192]

Using TensorFlow backend.
---[512, 256, -320, -192]

Using TensorFlow backend.
---[512, 256, -320, -192]

Using TensorFlow backend.
---[512, 256, -320, -192]

Using TensorFlow backend.
---[512, 256, -320, -192]

Using TensorFlow backend.
---[512, 256, 320, 192]

Using TensorFlow backend.
---[512, 256, -320, -192]

Using TensorFlow backend.
---[512, 256, -320, -192]

Using TensorFlow backend.
---[512, 256, -320, -192]

Using TensorFlow backend.
---[512, 256, -320, -192]

Using TensorFlow backend.
---[512, 256, -320, -192]

Using TensorFlow backend.
---[512, 256, -320, -192]

Using TensorFlow backend.
---[256, -320, -192, 320]

Using TensorFlow backend.
---[512, 256, -320, -192]

Using TensorFlow backend.
---[512, 256, -320, -192]

Using TensorFlow backend.
---[512, 256, -320, -192]

Using TensorFlow backend.
---[256, -320, -192, 320]

Using TensorFlow backend.
---[512, 256, -320, -192]

Using TensorFlow backend.
---[512, 256, -320, -192]

Using TensorFlow backend.
---[-320, -192, 192, -128]

Using TensorFlow backend.
---[256, -320, -192, 320]

Using TensorFlow backend.
---[512, 256, -320, -192]

Using TensorFlow backend.
---[512, 256, 320, 192]

Using TensorFlow backend.
---[512, 256, -320, -192]

Using TensorFlow backend.
---[-320, -192, 192, -128]

Using TensorFlow backend.
---[512, 256, -320, -192]

Using TensorFlow backend.
---[256, -320, -192, 320]

Using TensorFlow backend.
---[512, 256, -320, -192]

Using TensorFlow backend.
---[256, -320, -192, 320]

Using TensorFlow backend.
---[512, 256, -320, -192]

Using TensorFlow backend.
---[512, 256, -320, -192]

Using TensorFlow backend.
---[512, 256, -320, -192]

Using TensorFlow backend.
---[512, 256, -320, -192]

Using TensorFlow backend.
---[-320, -192, -128, -64]

Using TensorFlow backend.
---[256, -320, -192, 320]

Using TensorFlow backend.
---[512, 256, -320, -192]

Using TensorFlow backend.
---[512, 256, -320, -192]

Using TensorFlow backend.
---[256, -320, -192, 320]

Using TensorFlow backend.
---[256, -320, -192, 192]

Using TensorFlow backend.
---[-320, -192, -128, -64]

Using TensorFlow backend.
---[512, 256, 320, 192]

Using TensorFlow backend.
---[-320, -192, 192, -128]

Using TensorFlow backend.
---[512, 256, -320, -192]

Using TensorFlow backend.
---[512, 256, -320, -192]

Using TensorFlow backend.
---[512, 256, 320, 192]

Using TensorFlow backend.
---[512, 256, -320, -192]

Using TensorFlow backend.
---[512, 256, -320, -192]

Using TensorFlow backend.
---[512, 256, -320, -192]

Using TensorFlow backend.
---[512, 256, -320, -192]

Using TensorFlow backend.
---[512, 256, -320, -192]

Using TensorFlow backend.
---[512, 256, 320, 192]

Using TensorFlow backend.
---[-320, -192, -128, -64]

Using TensorFlow backend.
---[512, 256, -192, 320]

Using TensorFlow backend.
---[512, 256, -320, -192]

Using TensorFlow backend.
---[512, 256, -320, -192]

Using TensorFlow backend.
---[512, 256, -320, -192]

Using TensorFlow backend.
---[512, 256, -320, -192]

Using TensorFlow backend.
---[512, 256, -320, -192]

Using TensorFlow backend.
---[512, 256, -320, -192]

Using TensorFlow backend.
---[512, 256, -320, -192]

Using TensorFlow backend.
---[512, 256, -320, -192]

Using TensorFlow backend.
---[512, 256, -320, -192]

Using TensorFlow backend.
---[512, 256, -320, -192]

Using TensorFlow backend.
---[512, 256, -320, -192]

Using TensorFlow backend.
---[512, 256, -320, -192]

Using TensorFlow backend.
---[512, 256, -320, -192]

Using TensorFlow backend.
---[512, 256, -320, -192]

Using TensorFlow backend.
---[512, 256, -320, -192]

Using TensorFlow backend.
---[512, 256, -320, -192]

Using TensorFlow backend.
---[512, 256, -320, -192]

Using TensorFlow backend.
---[512, 256, -320, -192]

Using TensorFlow backend.
---[512, 256, -320, -192]

Using TensorFlow backend.
---[512, 256, -320, -192]

Using TensorFlow backend.
---[512, 256, -320, -192]

Using TensorFlow backend.
---[512, 256, -320, -192]

Using TensorFlow backend.
---[512, 256, -320, -192]

Using TensorFlow backend.
---[256, -320, -192, 320]

Using TensorFlow backend.
---[512, 256, 320, 192]

Using TensorFlow backend.
---[512, 256, -320, -192]

Using TensorFlow backend.
---[512, 256, -320, -192]

Using TensorFlow backend.
---[512, 256, -320, -192]

Using TensorFlow backend.
---[512, 256, -320, -192]

Using TensorFlow backend.
---[512, 256, -320, -192]

Using TensorFlow backend.
---[-320, -192, 192, -128]

Using TensorFlow backend.
---[512, 256, -320, -192]

Using TensorFlow backend.
---[512, 256, 320, 192]

Using TensorFlow backend.
---[512, 256, -320, -192]

Using TensorFlow backend.
---[512, 256, -320, -192]

Using TensorFlow backend.
---[512, 256, -320, -192]

Using TensorFlow backend.
---[512, 256, -320, -192]

Using TensorFlow backend.
---[512, 256, -320, -192]

Using TensorFlow backend.
---[512, 256, -192, 320]

Using TensorFlow backend.
---[512, 256, -320, -192]

Using TensorFlow backend.
---[512, 256, -320, -192]

Using TensorFlow backend.
---[512, 256, -320, -192]

Using TensorFlow backend.
---[512, 256, -320, -192]

Using TensorFlow backend.
---[512, 256, -320, -192]

Using TensorFlow backend.
---[256, -320, -192, 192]

Using TensorFlow backend.
---[512, 256, -320, -192]

Using TensorFlow backend.
---[256, -320, -192, 320]

Using TensorFlow backend.
---[512, 256, -320, -192]

Using TensorFlow backend.
---[512, 256, -320, -192]

Using TensorFlow backend.
---[512, 256, -320, -192]

Using TensorFlow backend.
---[512, 256, -320, -192]

Using TensorFlow backend.
---[512, 256, -320, -192]

Using TensorFlow backend.
---[512, 256, -320, -192]

Using TensorFlow backend.
---[512, 256, -320, -192]

Using TensorFlow backend.
---[512, 256, -192, 320]

Using TensorFlow backend.
---[512, 256, -320, -192]

Using TensorFlow backend.
---[512, 256, -320, -192]

Using TensorFlow backend.
---[512, 256, -320, -192]

Using TensorFlow backend.
---[512, 256, -320, -192]

Using TensorFlow backend.
---[512, 256, -320, -192]

Using TensorFlow backend.
---[512, 256, -320, -192]

Using TensorFlow backend.
---[512, 256, -320, -192]

Using TensorFlow backend.
---[512, 256, 320, 192]

Using TensorFlow backend.
---[512, 256, -320, -192]

Using TensorFlow backend.
---[512, 256, -320, -192]

Using TensorFlow backend.
---[512, 256, -320, -192]

Using TensorFlow backend.
---[512, 256, -320, -192]

Using TensorFlow backend.
---[512, 256, -320, -192]

Using TensorFlow backend.
---[512, 256, -320, -192]

Using TensorFlow backend.
---[512, 256, -320, -192]

Using TensorFlow backend.
---[512, 256, -320, -192]

Using TensorFlow backend.
---[512, 256, -320, -192]

Using TensorFlow backend.
---[512, 256, -320, -192]

Using TensorFlow backend.
---[512, 256, -320, -192]

Using TensorFlow backend.
---[512, 256, -320, -192]

Using TensorFlow backend.
---[512, 256, -320, -192]

Using TensorFlow backend.
---[512, 256, -320, -192]

Using TensorFlow backend.
---[256, -320, -192, 192]

Using TensorFlow backend.
---[256, -320, -192, 320]

Using TensorFlow backend.
---[512, 256, -320, -192]

Using TensorFlow backend.
---[512, 256, -320, -192]

Using TensorFlow backend.
---[512, 256, -320, -192]

Using TensorFlow backend.
---[512, 256, -320, -192]

Using TensorFlow backend.
---[512, 256, -320, -192]

Using TensorFlow backend.
---[512, 256, -320, -192]

Using TensorFlow backend.
---[512, 256, -320, -192]

Using TensorFlow backend.
---[512, 256, -320, -192]

Using TensorFlow backend.
---[512, 256, -320, -192]

Using TensorFlow backend.
---[256, -320, -192, 320]

Using TensorFlow backend.
---[512, 256, -320, -192]

Using TensorFlow backend.
---[512, 256, 320, 192]

Using TensorFlow backend.
---[512, 256, -320, -192]

Using TensorFlow backend.
---[512, 256, -320, -192]

Using TensorFlow backend.
---[512, 256, -192, 320]

Using TensorFlow backend.
---[256, -320, -192, 192]

Using TensorFlow backend.
---[-320, -192, 192, -128]

Using TensorFlow backend.
---[512, 256, -320, -192]

Using TensorFlow backend.
---[256, -320, -192, 320]

Using TensorFlow backend.
---[256, -320, -192, 320]

Using TensorFlow backend.
---[-320, -192, 192, -128]

Using TensorFlow backend.
---[512, 256, -320, -192]

Using TensorFlow backend.
---[512, 256, -320, -192]

Using TensorFlow backend.
---[512, 256, -320, -192]

Using TensorFlow backend.
---[512, 256, 320, 192]

Using TensorFlow backend.
---[512, 256, -320, -192]

Using TensorFlow backend.
---[512, 256, -320, -192]

Using TensorFlow backend.
---[512, 256, -320, -192]

Using TensorFlow backend.
---[512, 256, -320, -192]

Using TensorFlow backend.
---[512, 256, -320, -192]

Using TensorFlow backend.
---[512, 256, -320, -192]

Using TensorFlow backend.
---[512, 256, -320, -192]

Using TensorFlow backend.
---[512, 256, -320, -192]

Using TensorFlow backend.
---[512, 256, -320, -192]

Using TensorFlow backend.
---[512, 256, -192, 320]

Using TensorFlow backend.
---[512, 256, 320, 192]

Using TensorFlow backend.
---[512, 256, -320, -192]

Using TensorFlow backend.
---[512, 256, -320, -192]

Using TensorFlow backend.
---[512, 256, -320, -192]

Using TensorFlow backend.
---[512, 256, -320, -192]

Using TensorFlow backend.
---[512, 256, -320, -192]

Using TensorFlow backend.
---[512, 256, -320, -192]

Using TensorFlow backend.
---[-320, -192, 192, -128]

Using TensorFlow backend.
---[256, -320, -192, 192]

Using TensorFlow backend.
---[512, 256, -320, -192]

Using TensorFlow backend.
---[512, 256, -320, -192]

Using TensorFlow backend.
---[512, 256, -320, -192]

Using TensorFlow backend.
---[512, 256, -320, -192]

Using TensorFlow backend.
---[512, 256, -320, -192]

Using TensorFlow backend.
---[512, 256, -320, -192]

Using TensorFlow backend.
---[512, 256, -320, -192]

Using TensorFlow backend.
---[512, 256, -320, -192]

Using TensorFlow backend.
---[512, 256, -320, -192]

Using TensorFlow backend.
---[512, 256, -320, -192]

Using TensorFlow backend.
---[512, 256, -320, -192]

Using TensorFlow backend.
---[512, 256, -320, -192]

Using TensorFlow backend.
---[512, 256, -320, -192]

Using TensorFlow backend.
---[512, 256, -320, -192]

Using TensorFlow backend.
---[512, 256, -320, -192]

Using TensorFlow backend.
---[512, 256, -320, -192]

Using TensorFlow backend.
---[512, 256, 320, 192]

Using TensorFlow backend.
---[512, 256, -320, -192]

Using TensorFlow backend.
---[512, 256, -320, -192]

Using TensorFlow backend.
---[512, 256, -320, -192]

Using TensorFlow backend.
---[512, 256, -320, -192]

Using TensorFlow backend.
---[-320, -192, -128, -64]

Using TensorFlow backend.
---[512, 256, -320, -192]

Using TensorFlow backend.
---[512, 256, -320, -192]

Using TensorFlow backend.
---[512, 256, -320, -192]

Using TensorFlow backend.
---[-320, -192, -128, -64]

Using TensorFlow backend.
---[512, 256, -320, -192]

Using TensorFlow backend.
---[512, 256, -320, -192]

Using TensorFlow backend.
---[512, 256, -320, -192]

Using TensorFlow backend.
---[512, 256, -320, -192]

Using TensorFlow backend.
---[-320, -192, -128, -64]

Using TensorFlow backend.
---[512, 256, -320, -192]

Using TensorFlow backend.
---[512, 256, -192, 320]

Using TensorFlow backend.
---[-320, -192, -128, -64]

Using TensorFlow backend.
---[512, 256, -320, -192]

Using TensorFlow backend.
---[512, 256, -320, -192]

Using TensorFlow backend.
---[512, 256, -320, -192]

Using TensorFlow backend.
---[512, 256, 320, 192]

Using TensorFlow backend.
---[512, 256, -320, -192]

Using TensorFlow backend.
---[512, 256, -320, -192]

Using TensorFlow backend.
---[512, 256, -320, -192]

Using TensorFlow backend.
---[512, 256, -320, -192]

Using TensorFlow backend.
---[512, 256, -320, -192]

Using TensorFlow backend.
---[512, 256, -320, -192]

Using TensorFlow backend.
---[512, 256, -320, -192]

Using TensorFlow backend.
---[512, 256, -320, -192]

Using TensorFlow backend.
---[512, 256, -320, -192]

Using TensorFlow backend.
---[256, -320, -192, 320]

Using TensorFlow backend.
---[512, 256, -320, -192]

Using TensorFlow backend.
---[512, 256, -320, -192]

Using TensorFlow backend.
---[512, 256, -320, -192]

Using TensorFlow backend.
---[512, 256, -320, -192]

Using TensorFlow backend.
---[512, 256, -320, -192]

Using TensorFlow backend.
---[512, 256, -320, -192]

Using TensorFlow backend.
---[512, 256, -320, -192]

Using TensorFlow backend.
---[512, 256, -320, -192]

Using TensorFlow backend.
---[512, 256, -320, -192]

Using TensorFlow backend.
---[512, 256, -320, -192]

Using TensorFlow backend.
---[512, 256, -320, -192]

Using TensorFlow backend.
---[512, 256, -320, -192]

Using TensorFlow backend.
---[512, 256, -320, -192]

Using TensorFlow backend.
---[512, 256, -320, -192]

Using TensorFlow backend.
---[512, 256, -320, -192]

Using TensorFlow backend.
---[512, 256, -320, -192]

Using TensorFlow backend.
---[512, 256, -320, -192]

Using TensorFlow backend.
---[512, 256, -320, -192]

Using TensorFlow backend.
---[512, 256, -320, -192]

Using TensorFlow backend.
---[512, 256, -320, -192]

Using TensorFlow backend.
---[512, 256, -320, -192]

Using TensorFlow backend.
---[512, 256, -320, -192]

Using TensorFlow backend.
---[512, 256, -320, -192]

Using TensorFlow backend.
---[512, 256, -320, -192]

Using TensorFlow backend.
---[512, 256, -320, -192]

Using TensorFlow backend.
---[-320, -192, -128, -64]

Using TensorFlow backend.
---[512, 256, -320, -192]

Using TensorFlow backend.
---[512, 256, -320, -192]

Using TensorFlow backend.
---[512, 256, -320, -192]

Using TensorFlow backend.
---[512, 256, -320, -192]

Using TensorFlow backend.
---[512, 256, -320, -192]

Using TensorFlow backend.
---[512, 256, 320, 192]

Using TensorFlow backend.
---[512, 256, -320, -192]

Using TensorFlow backend.
---[512, 256, -320, -192]

Using TensorFlow backend.
---[512, 256, 320, 192]

Using TensorFlow backend.
---[512, 256, -320, -192]

Using TensorFlow backend.
---[512, 256, -320, -192]

Using TensorFlow backend.
---[-320, -192, -128, -64]

Using TensorFlow backend.
---[512, 256, -320, -192]

Using TensorFlow backend.
---[512, 256, -320, -192]

Using TensorFlow backend.
---[512, 256, -320, -192]

Using TensorFlow backend.
---[512, 256, -320, -192]

Using TensorFlow backend.
---[512, 256, 320, 192]

Using TensorFlow backend.
---[256, -320, -192, 320]

Using TensorFlow backend.
---[512, 256, -320, -192]

Using TensorFlow backend.
---[512, 256, -320, -192]

Using TensorFlow backend.
---[512, 256, -320, -192]

Using TensorFlow backend.
---[512, 256, -320, -192]

Using TensorFlow backend.
---[512, 256, -320, -192]

Using TensorFlow backend.
---[512, 256, -320, -192]

Using TensorFlow backend.
---[512, 256, -320, -192]

Using TensorFlow backend.
---[512, 256, -320, -192]

Using TensorFlow backend.
---[512, 256, -320, -192]

Using TensorFlow backend.
---[512, 256, -320, -192]

Using TensorFlow backend.
---[512, 256, -320, -192]

Using TensorFlow backend.
---[512, 256, -320, -192]

Using TensorFlow backend.
---[512, 256, -320, -192]

Using TensorFlow backend.
---[512, 256, 320, 192]

Using TensorFlow backend.
---[512, 256, -320, -192]

Using TensorFlow backend.
---[512, 256, -320, -192]

Using TensorFlow backend.
---[512, 256, -320, -192]

Using TensorFlow backend.
---[512, 256, -320, -192]

Using TensorFlow backend.
---[512, 256, -320, -192]

Using TensorFlow backend.
---[512, 256, -320, -192]

Using TensorFlow backend.
---[512, 256, -320, -192]

Using TensorFlow backend.
---[512, 256, -320, -192]

Using TensorFlow backend.
---[512, 256, -320, -192]

Using TensorFlow backend.
---[512, 256, -320, -192]

Using TensorFlow backend.
---[512, 256, -320, -192]

Using TensorFlow backend.
---[512, 256, -320, -192]

Using TensorFlow backend.
---[512, 256, -320, -192]

Using TensorFlow backend.
---[512, 256, -320, -192]

Using TensorFlow backend.
---[512, 256, -320, -192]

Using TensorFlow backend.
---[512, 256, -320, -192]

Using TensorFlow backend.
---[512, 256, -320, -192]

Using TensorFlow backend.
---[512, 256, -320, -192]

Using TensorFlow backend.
---[512, 256, 320, 192]

Using TensorFlow backend.
---[256, -320, -192, 320]

Using TensorFlow backend.
---[512, 256, -320, -192]

Using TensorFlow backend.
---[512, 256, -320, -192]

Using TensorFlow backend.
---[512, 256, -320, -192]

Using TensorFlow backend.
---[512, 256, -320, -192]

Using TensorFlow backend.
---[512, 256, -320, -192]

Using TensorFlow backend.
---[512, 256, -192, 320]

Using TensorFlow backend.
---[512, 256, 320, 192]

Using TensorFlow backend.
---[256, -320, -192, 320]

Using TensorFlow backend.
---[512, 256, -320, -192]

Using TensorFlow backend.
---[256, -320, -192, 192]

Using TensorFlow backend.
---[-320, -192, -128, -64]

Using TensorFlow backend.
---[512, 256, -320, -192]

Using TensorFlow backend.
---[512, 256, 320, 192]

Using TensorFlow backend.
---[512, 256, -320, -192]

Using TensorFlow backend.
---[512, 256, -320, -192]

Using TensorFlow backend.
---[512, 256, -192, 320]

Using TensorFlow backend.
---[512, 256, -320, -192]

Using TensorFlow backend.
---[512, 256, -320, -192]

Using TensorFlow backend.
---[512, 256, -320, -192]

Using TensorFlow backend.
---[512, 256, -320, -192]

Using TensorFlow backend.
---[512, 256, -320, -192]

Using TensorFlow backend.
---[512, 256, -320, -192]

Using TensorFlow backend.
---[512, 256, -320, -192]

Using TensorFlow backend.
---[512, 256, -320, -192]

Using TensorFlow backend.
---[512, 256, -320, -192]

Using TensorFlow backend.
---[512, 256, -320, -192]

Using TensorFlow backend.
---[512, 256, -320, -192]

Using TensorFlow backend.
---[512, 256, -320, -192]

Using TensorFlow backend.
---[512, 256, 320, 192]

Using TensorFlow backend.
---[-320, -192, -128, -64]

Using TensorFlow backend.
---[512, 256, -320, -192]

Using TensorFlow backend.
---[512, 256, 320, 192]

Using TensorFlow backend.
---[512, 256, -320, -192]

Using TensorFlow backend.
---[256, -320, -192, 320]

Using TensorFlow backend.
---[512, 256, -320, -192]

Using TensorFlow backend.
---[256, -320, -192, 320]

Using TensorFlow backend.
---[-320, -192, -128, -64]

Using TensorFlow backend.
---[512, 256, -320, -192]

Using TensorFlow backend.
---[512, 256, -320, -192]

Using TensorFlow backend.
---[512, 256, 320, 192]

Using TensorFlow backend.
---[512, 256, -320, -192]

Using TensorFlow backend.
---[512, 256, -320, -192]

Using TensorFlow backend.
---[256, -320, -192, 320]

Using TensorFlow backend.
---[512, 256, -320, -192]

Using TensorFlow backend.
---[-320, -192, 192, -128]

Using TensorFlow backend.
---[512, 256, -320, -192]

Using TensorFlow backend.
---[512, 256, -320, -192]

Using TensorFlow backend.
---[512, 256, -320, -192]

Using TensorFlow backend.
---[512, 256, 320, 192]

Using TensorFlow backend.
---[512, 256, -320, -192]

Using TensorFlow backend.
---[512, 256, -320, -192]

Using TensorFlow backend.
---[256, -320, -192, 320]

Using TensorFlow backend.
---[-320, -192, 192, -128]

Using TensorFlow backend.
---[512, 256, -320, -192]

Using TensorFlow backend.
---[512, 256, -320, -192]

Using TensorFlow backend.
---[-320, -192, 192, -128]

Using TensorFlow backend.
---[512, 256, -320, -192]

Using TensorFlow backend.
---[-320, -192, -128, -64]

Using TensorFlow backend.
---[512, 256, -320, -192]

Using TensorFlow backend.
---[512, 256, -320, -192]

Using TensorFlow backend.
---[512, 256, -320, -192]

Using TensorFlow backend.
---[512, 256, -320, -192]

Using TensorFlow backend.
---[512, 256, -320, -192]

Using TensorFlow backend.
---[512, 256, -320, -192]

Using TensorFlow backend.
---[512, 256, -320, -192]

Using TensorFlow backend.
---[512, 256, 320, 192]

Using TensorFlow backend.
---[512, 256, 320, 192]

Using TensorFlow backend.
---[512, 256, -320, -192]

Using TensorFlow backend.
---[512, 256, -320, -192]

Using TensorFlow backend.
---[512, 256, -320, -192]

Using TensorFlow backend.
---[512, 256, -320, -192]

Using TensorFlow backend.
---[512, 256, -320, -192]

Using TensorFlow backend.
---[256, -320, -192, 320]

Using TensorFlow backend.
---[512, 256, -320, -192]

Using TensorFlow backend.
---[512, 256, -320, -192]

Using TensorFlow backend.
---[-320, -192, -128, -64]

Using TensorFlow backend.
---[512, 256, -320, -192]

Using TensorFlow backend.
---[-320, -192, -128, -64]

Using TensorFlow backend.
---[512, 256, -320, -192]

Using TensorFlow backend.
---[512, 256, -320, -192]

Using TensorFlow backend.
---[512, 256, -320, -192]

Using TensorFlow backend.
---[512, 256, -320, -192]

Using TensorFlow backend.
---[512, 256, -320, -192]

Using TensorFlow backend.
---[512, 256, 320, 192]

Using TensorFlow backend.
---[512, 256, -320, -192]

Using TensorFlow backend.
---[512, 256, 320, 192]

Using TensorFlow backend.
---[-320, -192, 192, -128]

Using TensorFlow backend.
---[512, 256, 320, 192]

Using TensorFlow backend.
---[512, 256, -320, -192]

Using TensorFlow backend.
---[512, 256, -320, -192]

Using TensorFlow backend.
---[512, 256, -320, -192]

Using TensorFlow backend.
---[512, 256, -320, -192]

Using TensorFlow backend.
---[512, 256, -320, -192]

Using TensorFlow backend.
---[512, 256, -320, -192]

Using TensorFlow backend.
---[-320, -192, -128, -64]

Using TensorFlow backend.
---[256, -320, -192, 192]

Using TensorFlow backend.
---[512, 256, -320, -192]

Using TensorFlow backend.
---[512, 256, -320, -192]

Using TensorFlow backend.
---[512, 256, -320, -192]

Using TensorFlow backend.
---[512, 256, -320, -192]

Using TensorFlow backend.
---[512, 256, -320, -192]

Using TensorFlow backend.
---[256, -320, -192, 320]

Using TensorFlow backend.
---[512, 256, 320, 192]

Using TensorFlow backend.
---[512, 256, -320, -192]

Using TensorFlow backend.
---[512, 256, -320, -192]

Using TensorFlow backend.
---[512, 256, -320, -192]

Using TensorFlow backend.
---[512, 256, -320, -192]

Using TensorFlow backend.
---[512, 256, -320, -192]

Using TensorFlow backend.
---[512, 256, -320, -192]

Using TensorFlow backend.
---[512, 256, -320, -192]

Using TensorFlow backend.
---[-320, -192, 192, -128]

Using TensorFlow backend.
---[512, 256, -320, -192]

Using TensorFlow backend.
---[256, -320, -192, 320]

Using TensorFlow backend.
---[512, 256, -320, -192]

Using TensorFlow backend.
---[512, 256, -320, -192]

Using TensorFlow backend.
---[512, 256, -320, -192]

Using TensorFlow backend.
---[512, 256, -320, -192]

Using TensorFlow backend.
---[512, 256, -320, -192]

Using TensorFlow backend.
---[512, 256, -320, -192]

Using TensorFlow backend.
---[512, 256, -320, -192]

Using TensorFlow backend.
---[256, -320, -192, 320]

Using TensorFlow backend.
---[512, 256, -320, -192]

Using TensorFlow backend.
---[512, 256, -320, -192]

Using TensorFlow backend.
---[512, 256, -320, -192]

Using TensorFlow backend.
---[512, 256, -320, -192]

Using TensorFlow backend.
---[512, 256, -320, -192]

Using TensorFlow backend.
---[512, 256, -320, -192]

Using TensorFlow backend.
---[512, 256, -320, -192]

Using TensorFlow backend.
---[512, 256, -320, -192]

Using TensorFlow backend.
---[512, 256, -320, -192]

Using TensorFlow backend.
---[512, 256, -320, -192]

Using TensorFlow backend.
---[512, 256, -320, -192]

Using TensorFlow backend.
---[512, 256, -320, -192]

Using TensorFlow backend.
---[512, 256, -320, -192]

Using TensorFlow backend.
---[512, 256, -320, -192]

Using TensorFlow backend.
---[512, 256, -320, -192]

Using TensorFlow backend.
---[512, 256, -320, -192]

Using TensorFlow backend.
---[512, 256, -320, -192]

Using TensorFlow backend.
---[512, 256, -320, -192]

Using TensorFlow backend.
---[512, 256, -320, -192]

Using TensorFlow backend.
---[512, 256, -320, -192]

Using TensorFlow backend.
---[512, 256, -320, -192]

Using TensorFlow backend.
---[512, 256, -320, -192]

Using TensorFlow backend.
---[512, 256, -320, -192]

Using TensorFlow backend.
---[512, 256, -320, -192]

Using TensorFlow backend.
---[512, 256, -320, -192]

Using TensorFlow backend.
---[512, 256, -320, -192]

Using TensorFlow backend.
---[256, -320, -192, 320]

Using TensorFlow backend.
---[512, 256, -320, -192]

Using TensorFlow backend.
---[512, 256, -320, -192]

Using TensorFlow backend.
---[512, 256, -320, -192]

Using TensorFlow backend.
---[-320, -192, -128, -64]

Using TensorFlow backend.
---[512, 256, -320, -192]

Using TensorFlow backend.
---[512, 256, -320, -192]

Using TensorFlow backend.
---[512, 256, -320, -192]

Using TensorFlow backend.
---[256, -320, -192, 320]

Using TensorFlow backend.
---[512, 256, -320, -192]

Using TensorFlow backend.
---[512, 256, -320, -192]

Using TensorFlow backend.
---[-320, -192, -128, -64]

Using TensorFlow backend.
---[-320, -192, -128, -64]

Using TensorFlow backend.
---[512, 256, -320, -192]

Using TensorFlow backend.
---[256, -320, -192, 320]

Using TensorFlow backend.
---[-320, -192, -128, -64]

Using TensorFlow backend.
---[512, 256, -320, -192]

Using TensorFlow backend.
---[512, 256, 320, 192]

Using TensorFlow backend.
---[512, 256, -320, -192]

Using TensorFlow backend.
---[512, 256, -320, -192]

Using TensorFlow backend.
---[512, 256, -320, -192]

Using TensorFlow backend.
---[512, 256, -320, -192]

Using TensorFlow backend.
---[512, 256, -320, -192]

Using TensorFlow backend.
---[512, 256, -320, -192]

Using TensorFlow backend.
---[512, 256, -320, -192]

Using TensorFlow backend.
---[256, -320, -192, 320]

Using TensorFlow backend.
---[512, 256, -320, -192]

Using TensorFlow backend.
---[512, 256, -320, -192]

Using TensorFlow backend.
---[512, 256, -320, -192]

Using TensorFlow backend.
---[512, 256, -320, -192]

Using TensorFlow backend.
---[512, 256, -320, -192]

Using TensorFlow backend.
---[512, 256, -320, -192]

Using TensorFlow backend.
---[512, 256, -320, -192]

Using TensorFlow backend.
---[512, 256, 320, 192]

Using TensorFlow backend.
---[512, 256, -320, -192]

Using TensorFlow backend.
---[512, 256, -320, -192]

Using TensorFlow backend.
---[-320, -192, -128, -64]

Using TensorFlow backend.
---[512, 256, -320, -192]

Using TensorFlow backend.
---[512, 256, -320, -192]

Using TensorFlow backend.
---[512, 256, -320, -192]

Using TensorFlow backend.
---[512, 256, -320, -192]

Using TensorFlow backend.
---[512, 256, -320, -192]

Using TensorFlow backend.
---[512, 256, -320, -192]

Using TensorFlow backend.
---[512, 256, -320, -192]

Using TensorFlow backend.
---[512, 256, -320, -192]

Using TensorFlow backend.
---[512, 256, -320, -192]

Using TensorFlow backend.
---[512, 256, -320, -192]

Using TensorFlow backend.
---[512, 256, -320, -192]

Using TensorFlow backend.
---[512, 256, -192, 320]

Using TensorFlow backend.
---[512, 256, -320, -192]

Using TensorFlow backend.
---[512, 256, -320, -192]

Using TensorFlow backend.
---[512, 256, -320, -192]

Using TensorFlow backend.
---[-320, -192, -128, -64]

Using TensorFlow backend.
---[512, 256, -320, -192]

Using TensorFlow backend.
---[512, 256, -320, -192]

Using TensorFlow backend.
---[512, 256, -320, -192]

Using TensorFlow backend.
---[512, 256, -320, -192]

Using TensorFlow backend.
---[512, 256, -320, -192]

Using TensorFlow backend.
---[512, 256, -320, -192]

Using TensorFlow backend.
---[512, 256, -320, -192]

Using TensorFlow backend.
---[512, 256, -320, -192]

Using TensorFlow backend.
---[512, 256, -320, -192]

Using TensorFlow backend.
---[256, -320, -192, 320]

Using TensorFlow backend.
---[512, 256, -320, -192]

Using TensorFlow backend.
---[512, 256, -320, -192]

Using TensorFlow backend.
---[512, 256, -320, -192]

Using TensorFlow backend.
---[512, 256, -320, -192]

Using TensorFlow backend.
---[512, 256, -320, -192]

Using TensorFlow backend.
---[512, 256, -192, 320]

Using TensorFlow backend.
---[512, 256, -320, -192]

Using TensorFlow backend.
---[512, 256, -320, -192]

Using TensorFlow backend.
---[512, 256, -320, -192]

Using TensorFlow backend.
---[512, 256, -320, -192]

Using TensorFlow backend.
---[512, 256, -320, -192]

Using TensorFlow backend.
---[512, 256, -320, -192]

Using TensorFlow backend.
---[512, 256, -320, -192]

Using TensorFlow backend.
---[512, 256, -320, -192]

Using TensorFlow backend.
---[512, 256, -320, -192]

Using TensorFlow backend.
---[512, 256, -320, -192]

Using TensorFlow backend.
---[512, 256, -320, -192]

Using TensorFlow backend.
---[512, 256, -320, -192]

Using TensorFlow backend.
---[512, 256, -320, -192]

Using TensorFlow backend.
---[512, 256, -320, -192]

Using TensorFlow backend.
---[512, 256, -320, -192]

Using TensorFlow backend.
---[512, 256, -320, -192]

Using TensorFlow backend.
---[512, 256, -320, -192]

Using TensorFlow backend.
---[512, 256, -320, -192]

Using TensorFlow backend.
---[512, 256, -320, -192]

Using TensorFlow backend.
---[512, 256, -320, -192]

Using TensorFlow backend.
---[512, 256, -320, -192]

Using TensorFlow backend.
---[512, 256, -320, -192]

Using TensorFlow backend.
---[512, 256, -320, -192]

Using TensorFlow backend.
---[512, 256, -320, -192]

Using TensorFlow backend.
---[512, 256, -320, -192]

Using TensorFlow backend.
---[512, 256, -320, -192]

Using TensorFlow backend.
---[512, 256, -320, -192]

Using TensorFlow backend.
---[512, 256, -320, -192]

Using TensorFlow backend.
---[512, 256, -320, -192]

Using TensorFlow backend.
---[512, 256, -320, -192]

Using TensorFlow backend.
---[512, 256, -320, -192]

Using TensorFlow backend.
---[512, 256, -320, -192]

Using TensorFlow backend.
---[512, 256, -192, 320]

Using TensorFlow backend.
---[512, 256, -320, -192]

Using TensorFlow backend.
---[512, 256, -320, -192]

Using TensorFlow backend.
---[512, 256, -320, -192]

Using TensorFlow backend.
---[512, 256, -320, -192]

Using TensorFlow backend.
---[512, 256, -320, -192]

Using TensorFlow backend.
---[512, 256, -320, -192]

Using TensorFlow backend.
---[512, 256, -320, -192]

Using TensorFlow backend.
---[512, 256, -320, -192]

Using TensorFlow backend.
---[512, 256, -320, -192]

Using TensorFlow backend.
---[512, 256, -320, -192]

Using TensorFlow backend.
---[512, 256, -320, -192]

Using TensorFlow backend.
---[512, 256, -320, -192]

Using TensorFlow backend.
---[512, 256, -320, -192]

Using TensorFlow backend.
---[512, 256, -320, -192]

Using TensorFlow backend.
---[512, 256, -320, -192]

Using TensorFlow backend.
---[512, 256, -320, -192]

Using TensorFlow backend.
---[512, 256, -320, -192]

Using TensorFlow backend.
---[512, 256, -320, -192]

Using TensorFlow backend.
---[512, 256, -320, -192]

Using TensorFlow backend.
---[512, 256, -320, -192]

Using TensorFlow backend.
---[-320, -192, 192, -128]

Using TensorFlow backend.
---[512, 256, -320, -192]

Using TensorFlow backend.
---[512, 256, -320, -192]

Using TensorFlow backend.
---[512, 256, -320, -192]

Using TensorFlow backend.
---[512, 256, -320, -192]

Using TensorFlow backend.
---[512, 256, -320, -192]

Using TensorFlow backend.
---[512, 256, -320, -192]

Using TensorFlow backend.
---[512, 256, -320, -192]

Using TensorFlow backend.
---[512, 256, -320, -192]

Using TensorFlow backend.
---[512, 256, -320, -192]

Using TensorFlow backend.
---[512, 256, -320, -192]

Using TensorFlow backend.
---[-320, -192, -128, -64]

Using TensorFlow backend.
---[-320, -192, -128, -64]

Using TensorFlow backend.
---[512, 256, 320, 192]

Using TensorFlow backend.
---[512, 256, -192, 320]

Using TensorFlow backend.
---[512, 256, -320, -192]

Using TensorFlow backend.
---[512, 256, -320, -192]

Using TensorFlow backend.
---[512, 256, -320, -192]

Using TensorFlow backend.
---[512, 256, -320, -192]

Using TensorFlow backend.
---[512, 256, -320, -192]

Using TensorFlow backend.
---[512, 256, 320, 192]

Using TensorFlow backend.
---[256, -320, -192, 320]

Using TensorFlow backend.
---[512, 256, -320, -192]

Using TensorFlow backend.
---[512, 256, -320, -192]

Using TensorFlow backend.
---[512, 256, -320, -192]

Using TensorFlow backend.
---[512, 256, -320, -192]

Using TensorFlow backend.
---[256, -320, -192, 320]

Using TensorFlow backend.
---[512, 256, -320, -192]

Using TensorFlow backend.
---[-320, -192, -128, -64]

Using TensorFlow backend.
---[512, 256, 320, 192]

Using TensorFlow backend.
---[-320, -192, -128, -64]

Using TensorFlow backend.
---[512, 256, -320, -192]

Using TensorFlow backend.
---[256, -320, -192, 320]

Using TensorFlow backend.
---[256, -320, -192, 192]

Using TensorFlow backend.
---[512, 256, -192, 320]

Using TensorFlow backend.
---[512, 256, -320, -192]

Using TensorFlow backend.
---[512, 256, -320, -192]

Using TensorFlow backend.
---[512, 256, -320, -192]

Using TensorFlow backend.
---[512, 256, -320, -192]

Using TensorFlow backend.
---[512, 256, -320, -192]

Using TensorFlow backend.
---[512, 256, -320, -192]

Using TensorFlow backend.
---[-320, -192, -128, -64]

Using TensorFlow backend.
---[512, 256, -320, -192]

Using TensorFlow backend.
---[512, 256, -192, 320]

Using TensorFlow backend.
---[512, 256, -320, -192]

Using TensorFlow backend.
---[512, 256, -320, -192]

Using TensorFlow backend.
---[512, 256, -320, -192]

Using TensorFlow backend.
---[256, -320, -192, 320]

Using TensorFlow backend.
---[512, 256, -320, -192]

Using TensorFlow backend.
---[512, 256, -320, -192]

Using TensorFlow backend.
---[512, 256, -320, -192]

Using TensorFlow backend.
---[-320, -192, -128, -64]

Using TensorFlow backend.
---[512, 256, -320, -192]

Using TensorFlow backend.
---[512, 256, -320, -192]

Using TensorFlow backend.
---[512, 256, -320, -192]

Using TensorFlow backend.
---[512, 256, -320, -192]

Using TensorFlow backend.
---[512, 256, -192, 320]

Using TensorFlow backend.
---[512, 256, -320, -192]

Using TensorFlow backend.
---[512, 256, -320, -192]

Using TensorFlow backend.
---[512, 256, -320, -192]

Using TensorFlow backend.
---[512, 256, 320, 192]

Using TensorFlow backend.
---[512, 256, -320, -192]

Using TensorFlow backend.
---[512, 256, -320, -192]

Using TensorFlow backend.
---[512, 256, -320, -192]

Using TensorFlow backend.
---[512, 256, -320, -192]

Using TensorFlow backend.
---[512, 256, -320, -192]

Using TensorFlow backend.
---[512, 256, -320, -192]

Using TensorFlow backend.
---[256, -320, -192, 320]

Using TensorFlow backend.
---[512, 256, -320, -192]

Using TensorFlow backend.
---[512, 256, -320, -192]

Using TensorFlow backend.
---[512, 256, -192, 320]

Using TensorFlow backend.
---[512, 256, -320, -192]

Using TensorFlow backend.
---[512, 256, -320, -192]

Using TensorFlow backend.
---[512, 256, -320, -192]

Using TensorFlow backend.
---[512, 256, -320, -192]

Using TensorFlow backend.
---[512, 256, -320, -192]

Using TensorFlow backend.
---[512, 256, -320, -192]

Using TensorFlow backend.
---[512, 256, 320, 192]

Using TensorFlow backend.
---[512, 256, -320, -192]

Using TensorFlow backend.
---[512, 256, -320, -192]

Using TensorFlow backend.
---[512, 256, -320, -192]

Using TensorFlow backend.
---[256, -320, -192, 320]

Using TensorFlow backend.
---[512, 256, -320, -192]

Using TensorFlow backend.
---[512, 256, -320, -192]

Using TensorFlow backend.
---[512, 256, -320, -192]

Using TensorFlow backend.
---[512, 256, -320, -192]

Using TensorFlow backend.
---[512, 256, -320, -192]

Using TensorFlow backend.
---[256, -320, -192, 192]

Using TensorFlow backend.
---[512, 256, -320, -192]

Using TensorFlow backend.
---[512, 256, -192, 320]

Using TensorFlow backend.
---[512, 256, -320, -192]

Using TensorFlow backend.
---[512, 256, -320, -192]

Using TensorFlow backend.
---[512, 256, -320, -192]

Using TensorFlow backend.
---[512, 256, -320, -192]

Using TensorFlow backend.
---[512, 256, -320, -192]

Using TensorFlow backend.
---[512, 256, -320, -192]

Using TensorFlow backend.
---[256, -320, -192, 320]

Using TensorFlow backend.
---[512, 256, -320, -192]

Using TensorFlow backend.
---[512, 256, -320, -192]

Using TensorFlow backend.
---[512, 256, -320, -192]

Using TensorFlow backend.
---[512, 256, -320, -192]

Using TensorFlow backend.
---[512, 256, -320, -192]

Using TensorFlow backend.
---[512, 256, -320, -192]

Using TensorFlow backend.
---[512, 256, 320, 192]

Using TensorFlow backend.
---[512, 256, -320, -192]

Using TensorFlow backend.
---[512, 256, -320, -192]

Using TensorFlow backend.
---[-320, -192, -128, -64]

Using TensorFlow backend.
---[512, 256, -320, -192]

Using TensorFlow backend.
---[256, -320, -192, 320]

Using TensorFlow backend.
---[-320, -192, 192, -128]

Using TensorFlow backend.
---[512, 256, -320, -192]

Using TensorFlow backend.
---[512, 256, -320, -192]

Using TensorFlow backend.
---[512, 256, 320, 192]

Using TensorFlow backend.
---[512, 256, -320, -192]

Using TensorFlow backend.
---[256, -320, -192, 320]

Using TensorFlow backend.
---[512, 256, -320, -192]

Using TensorFlow backend.
---[512, 256, -320, -192]

Using TensorFlow backend.
---[512, 256, -320, -192]

Using TensorFlow backend.
---[512, 256, -320, -192]

Using TensorFlow backend.
---[512, 256, -320, -192]

Using TensorFlow backend.
---[512, 256, -320, -192]

Using TensorFlow backend.
---[512, 256, -320, -192]

Using TensorFlow backend.
---[512, 256, -320, -192]

Using TensorFlow backend.
---[512, 256, -320, -192]

Using TensorFlow backend.
---[512, 256, -320, -192]

Using TensorFlow backend.
---[256, -320, -192, 320]

Using TensorFlow backend.
---[512, 256, -320, -192]

Using TensorFlow backend.
---[512, 256, -320, -192]

Using TensorFlow backend.
---[512, 256, -192, 320]

Using TensorFlow backend.
---[512, 256, -320, -192]

Using TensorFlow backend.
---[512, 256, -320, -192]

Using TensorFlow backend.
---[512, 256, -320, -192]

Using TensorFlow backend.
---[512, 256, -320, -192]

Using TensorFlow backend.
---[512, 256, -320, -192]

Using TensorFlow backend.
---[512, 256, -320, -192]

Using TensorFlow backend.
---[-320, -192, -128, -64]

Using TensorFlow backend.
---[-320, -192, -128, -64]

Using TensorFlow backend.
---[512, 256, -320, -192]

Using TensorFlow backend.
---[512, 256, -320, -192]

Using TensorFlow backend.
---[512, 256, -320, -192]

Using TensorFlow backend.
---[512, 256, -320, -192]

Using TensorFlow backend.
---[-320, -192, 192, -128]

Using TensorFlow backend.
---[512, 256, -320, -192]

Using TensorFlow backend.
---[512, 256, -320, -192]

Using TensorFlow backend.
---[512, 256, -320, -192]

Using TensorFlow backend.
---[512, 256, -320, -192]

Using TensorFlow backend.
---[512, 256, -320, -192]

Using TensorFlow backend.
---[512, 256, -320, -192]

Using TensorFlow backend.
---[512, 256, -320, -192]

Using TensorFlow backend.
---[512, 256, -320, -192]

Using TensorFlow backend.
---[512, 256, -320, -192]

Using TensorFlow backend.
---[512, 256, -320, -192]

Using TensorFlow backend.
---[512, 256, -320, -192]

Using TensorFlow backend.
---[512, 256, -320, -192]

Using TensorFlow backend.
---[512, 256, -320, -192]

Using TensorFlow backend.
---[512, 256, -320, -192]

Using TensorFlow backend.
---[512, 256, -320, -192]

Using TensorFlow backend.
---[512, 256, -320, -192]

Using TensorFlow backend.
---[512, 256, -320, -192]

Using TensorFlow backend.
---[512, 256, -192, 320]

Using TensorFlow backend.
---[512, 256, -320, -192]

Using TensorFlow backend.
---[512, 256, -320, -192]

Using TensorFlow backend.
---[512, 256, -320, -192]

Using TensorFlow backend.
---[512, 256, -320, -192]

Using TensorFlow backend.
---[512, 256, -320, -192]

Using TensorFlow backend.
---[512, 256, -192, 320]

Using TensorFlow backend.
---[512, 256, -320, -192]

Using TensorFlow backend.
---[512, 256, -320, -192]

Using TensorFlow backend.
---[512, 256, 320, 192]

Using TensorFlow backend.
---[512, 256, -320, -192]

Using TensorFlow backend.
---[-320, -192, -128, -64]

Using TensorFlow backend.
---[256, -320, -192, 320]

Using TensorFlow backend.
---[512, 256, -320, -192]

Using TensorFlow backend.
---[256, -320, -192, 192]

Using TensorFlow backend.
---[512, 256, -320, -192]

Using TensorFlow backend.
---[512, 256, -320, -192]

Using TensorFlow backend.
---[512, 256, -320, -192]

Using TensorFlow backend.
---[512, 256, -320, -192]

Using TensorFlow backend.
---[512, 256, -320, -192]

Using TensorFlow backend.
---[512, 256, -320, -192]

Using TensorFlow backend.
---[512, 256, -320, -192]

Using TensorFlow backend.
---[512, 256, -320, -192]

Using TensorFlow backend.
---[256, -320, -192, 320]

Using TensorFlow backend.
---[512, 256, -320, -192]

Using TensorFlow backend.
---[-320, -192, -128, -64]

Using TensorFlow backend.
---[512, 256, -320, -192]

Using TensorFlow backend.
---[512, 256, -320, -192]

Using TensorFlow backend.
---[512, 256, -320, -192]

Using TensorFlow backend.
---[256, -320, -192, 320]

Using TensorFlow backend.
---[512, 256, -320, -192]

Using TensorFlow backend.
---[512, 256, -192, 320]

Using TensorFlow backend.
---[512, 256, -320, -192]

Using TensorFlow backend.
---[512, 256, -320, -192]

Using TensorFlow backend.
---[256, -320, -192, 192]

Using TensorFlow backend.
---[512, 256, 320, 192]

Using TensorFlow backend.
---[-320, -192, 192, -128]

Using TensorFlow backend.
---[512, 256, -320, -192]

Using TensorFlow backend.
---[-320, -192, 192, -128]

Using TensorFlow backend.
---[512, 256, -320, -192]

Using TensorFlow backend.
---[512, 256, -320, -192]

Using TensorFlow backend.
---[512, 256, -320, -192]

Using TensorFlow backend.
---[512, 256, -320, -192]

Using TensorFlow backend.
---[512, 256, -320, -192]

Using TensorFlow backend.
---[512, 256, -320, -192]

Using TensorFlow backend.
---[-320, -192, -128, -64]

Using TensorFlow backend.
---[-320, -192, -128, -64]

Using TensorFlow backend.
---[512, 256, -320, -192]

Using TensorFlow backend.
---[512, 256, -320, -192]

Using TensorFlow backend.
---[512, 256, -320, -192]

Using TensorFlow backend.
---[512, 256, -320, -192]

Using TensorFlow backend.
---[512, 256, -320, -192]

Using TensorFlow backend.
---[512, 256, -320, -192]

Using TensorFlow backend.
---[512, 256, -320, -192]

Using TensorFlow backend.
---[512, 256, -320, -192]

Using TensorFlow backend.
---[512, 256, -320, -192]

Using TensorFlow backend.
---[512, 256, -320, -192]

Using TensorFlow backend.
---[512, 256, -320, -192]

Using TensorFlow backend.
---[512, 256, -320, -192]

Using TensorFlow backend.
---[512, 256, -320, -192]

Using TensorFlow backend.
---[256, -320, -192, 320]

Using TensorFlow backend.
---[512, 256, -320, -192]

Using TensorFlow backend.
---[512, 256, -320, -192]

Using TensorFlow backend.
---[512, 256, -320, -192]

Using TensorFlow backend.
---[512, 256, -320, -192]

Using TensorFlow backend.
---[512, 256, -320, -192]

Using TensorFlow backend.
---[-320, -192, 192, -128]

Using TensorFlow backend.
---[-320, -192, -128, -64]

Using TensorFlow backend.
---[512, 256, -320, -192]

Using TensorFlow backend.
---[-320, -192, -128, -64]

Using TensorFlow backend.
---[512, 256, -320, -192]

Using TensorFlow backend.
---[512, 256, -320, -192]

Using TensorFlow backend.
---[512, 256, -320, -192]

Using TensorFlow backend.
---[512, 256, -320, -192]

Using TensorFlow backend.
---[256, -320, -192, 320]

Using TensorFlow backend.
---[256, -320, -192, 320]

Using TensorFlow backend.
---[512, 256, -320, -192]

Using TensorFlow backend.
---[-320, -192, -128, -64]

Using TensorFlow backend.
---[512, 256, -320, -192]

Using TensorFlow backend.
---[512, 256, -320, -192]

Using TensorFlow backend.
---[512, 256, -320, -192]

Using TensorFlow backend.
---[512, 256, -320, -192]

Using TensorFlow backend.
---[512, 256, -320, -192]

Using TensorFlow backend.
---[-320, -192, -128, -64]

Using TensorFlow backend.
---[512, 256, -320, -192]

Using TensorFlow backend.
---[512, 256, -320, -192]

Using TensorFlow backend.
---[512, 256, -320, -192]

Using TensorFlow backend.
---[512, 256, -320, -192]

Using TensorFlow backend.
---[512, 256, -320, -192]

Using TensorFlow backend.
---[256, -320, -192, 320]

Using TensorFlow backend.
---[512, 256, -320, -192]

Using TensorFlow backend.
---[512, 256, 320, 192]

Using TensorFlow backend.
---[512, 256, -320, -192]

Using TensorFlow backend.
---[-320, -192, -128, -64]

Using TensorFlow backend.
---[512, 256, -320, -192]

Using TensorFlow backend.
---[512, 256, -320, -192]

Using TensorFlow backend.
---[512, 256, -320, -192]

Using TensorFlow backend.
---[512, 256, -320, -192]

Using TensorFlow backend.
---[512, 256, -320, -192]

Using TensorFlow backend.
---[512, 256, -320, -192]

Using TensorFlow backend.
---[512, 256, -320, -192]

Using TensorFlow backend.
---[512, 256, -320, -192]

Using TensorFlow backend.
---[512, 256, 320, 192]

Using TensorFlow backend.
---[512, 256, -320, -192]

Using TensorFlow backend.
---[512, 256, -320, -192]

Using TensorFlow backend.
---[512, 256, -320, -192]

Using TensorFlow backend.
---[512, 256, -320, -192]

Using TensorFlow backend.
---[512, 256, -320, -192]

Using TensorFlow backend.
---[-320, -192, 192, -128]

Using TensorFlow backend.
---[512, 256, -320, -192]

Using TensorFlow backend.
---[512, 256, -320, -192]

Using TensorFlow backend.
---[512, 256, -320, -192]

Using TensorFlow backend.
---[512, 256, -320, -192]

Using TensorFlow backend.
---[512, 256, -320, -192]

Using TensorFlow backend.
---[512, 256, -320, -192]

Using TensorFlow backend.
---[512, 256, -320, -192]

Using TensorFlow backend.
---[512, 256, -320, -192]

Using TensorFlow backend.
---[512, 256, -320, -192]

Using TensorFlow backend.
---[512, 256, -320, -192]

Using TensorFlow backend.
---[256, -320, -192, 320]

Using TensorFlow backend.
---[256, -320, -192, 320]

Using TensorFlow backend.
---[512, 256, -320, -192]

Using TensorFlow backend.
---[512, 256, -320, -192]

Using TensorFlow backend.
---[512, 256, -192, 320]

Using TensorFlow backend.
---[512, 256, -320, -192]

Using TensorFlow backend.
---[512, 256, -320, -192]

Using TensorFlow backend.
---[512, 256, -320, -192]

Using TensorFlow backend.
---[256, -320, -192, 320]

Using TensorFlow backend.
---[512, 256, -320, -192]

Using TensorFlow backend.
---[512, 256, -320, -192]

Using TensorFlow backend.
---[256, -320, -192, 192]

Using TensorFlow backend.
---[512, 256, -320, -192]

Using TensorFlow backend.
---[512, 256, -320, -192]

Using TensorFlow backend.
---[512, 256, -320, -192]

Using TensorFlow backend.
---[512, 256, -320, -192]

Using TensorFlow backend.
---[512, 256, -320, -192]

Using TensorFlow backend.
---[512, 256, -320, -192]

Using TensorFlow backend.
---[-320, -192, 192, -128]

Using TensorFlow backend.
---[512, 256, -320, -192]

Using TensorFlow backend.
---[512, 256, -320, -192]

Using TensorFlow backend.
---[256, -320, -192, 320]

Using TensorFlow backend.
---[512, 256, -320, -192]

Using TensorFlow backend.
---[512, 256, -320, -192]

Using TensorFlow backend.
---[512, 256, -320, -192]

Using TensorFlow backend.
---[512, 256, -320, -192]

Using TensorFlow backend.
---[512, 256, -320, -192]

Using TensorFlow backend.
---[512, 256, -320, -192]

Using TensorFlow backend.
---[512, 256, -320, -192]

Using TensorFlow backend.
---[512, 256, -320, -192]

Using TensorFlow backend.
---[512, 256, -320, -192]

Using TensorFlow backend.
---[512, 256, -320, -192]

Using TensorFlow backend.
---[512, 256, -320, -192]

Using TensorFlow backend.
---[512, 256, -320, -192]

Using TensorFlow backend.
---[512, 256, -320, -192]

Using TensorFlow backend.
---[512, 256, -192, 320]

Using TensorFlow backend.
---[512, 256, -320, -192]

Using TensorFlow backend.
---[512, 256, -320, -192]

Using TensorFlow backend.
---[512, 256, -320, -192]

Using TensorFlow backend.
---[256, -320, -192, 320]

Using TensorFlow backend.
---[512, 256, -320, -192]

Using TensorFlow backend.
---[512, 256, -320, -192]

Using TensorFlow backend.
---[512, 256, -320, -192]

Using TensorFlow backend.
---[512, 256, -320, -192]

Using TensorFlow backend.
---[512, 256, -320, -192]

Using TensorFlow backend.
---[512, 256, -320, -192]

Using TensorFlow backend.
---[512, 256, -320, -192]

Using TensorFlow backend.
---[512, 256, -320, -192]

Using TensorFlow backend.
---[512, 256, -320, -192]

Using TensorFlow backend.
---[512, 256, -320, -192]

Using TensorFlow backend.
---[512, 256, -320, -192]

Using TensorFlow backend.
---[512, 256, -320, -192]

Using TensorFlow backend.
---[512, 256, -320, -192]

Using TensorFlow backend.
---[512, 256, -320, -192]

Using TensorFlow backend.
---[512, 256, -320, -192]

Using TensorFlow backend.
---[512, 256, -320, -192]

Using TensorFlow backend.
---[512, 256, -320, -192]

Using TensorFlow backend.
---[512, 256, -320, -192]

Using TensorFlow backend.
---[512, 256, -320, -192]

Using TensorFlow backend.
---[-320, -192, -128, -64]

Using TensorFlow backend.
---[-320, -192, 192, -128]

Using TensorFlow backend.
---[512, 256, -320, -192]

Using TensorFlow backend.
---[256, -320, -192, 192]

Using TensorFlow backend.
---[512, 256, -320, -192]

Using TensorFlow backend.
---[-320, -192, -128, -64]

Using TensorFlow backend.
---[-320, -192, 192, -128]

Using TensorFlow backend.
---[512, 256, -320, -192]

Using TensorFlow backend.
---[-320, -192, -128, -64]

Using TensorFlow backend.
---[512, 256, -320, -192]

Using TensorFlow backend.
---[512, 256, -320, -192]

Using TensorFlow backend.
---[512, 256, -320, -192]

Using TensorFlow backend.
---[512, 256, -320, -192]

Using TensorFlow backend.
---[512, 256, -320, -192]

Using TensorFlow backend.
---[512, 256, -320, -192]

Using TensorFlow backend.
---[512, 256, -320, -192]

Using TensorFlow backend.
---[512, 256, -320, -192]

Using TensorFlow backend.
---[512, 256, -320, -192]

Using TensorFlow backend.
---[512, 256, -320, -192]

Using TensorFlow backend.
---[512, 256, -320, -192]

Using TensorFlow backend.
---[512, 256, -320, -192]

Using TensorFlow backend.
---[512, 256, -320, -192]

Using TensorFlow backend.
---[512, 256, -320, -192]

Using TensorFlow backend.
---[512, 256, -320, -192]

Using TensorFlow backend.
---[512, 256, -320, -192]

Using TensorFlow backend.
---[512, 256, -320, -192]

Using TensorFlow backend.
---[512, 256, -320, -192]

Using TensorFlow backend.
---[512, 256, -320, -192]

Using TensorFlow backend.
---[512, 256, -320, -192]

Using TensorFlow backend.
---[512, 256, -320, -192]

Using TensorFlow backend.
---[512, 256, -320, -192]

Using TensorFlow backend.
---[512, 256, -320, -192]

Using TensorFlow backend.
---[512, 256, -320, -192]

Using TensorFlow backend.
---[512, 256, -320, -192]

Using TensorFlow backend.
---[512, 256, -320, -192]

Using TensorFlow backend.
---[512, 256, -320, -192]

Using TensorFlow backend.
---[512, 256, -320, -192]

Using TensorFlow backend.
---[512, 256, -320, -192]

Using TensorFlow backend.
---[-320, -192, -128, -64]

Using TensorFlow backend.
---[512, 256, -192, 320]

Using TensorFlow backend.
---[512, 256, -320, -192]

Using TensorFlow backend.
---[512, 256, -320, -192]

Using TensorFlow backend.
---[512, 256, -320, -192]

Using TensorFlow backend.
---[512, 256, -320, -192]

Using TensorFlow backend.
---[512, 256, -320, -192]

Using TensorFlow backend.
---[512, 256, -320, -192]

Using TensorFlow backend.
---[512, 256, -320, -192]

Using TensorFlow backend.
---[256, -320, -192, 320]

Using TensorFlow backend.
---[512, 256, -320, -192]

Using TensorFlow backend.
---[-320, -192, -128, -64]

Using TensorFlow backend.
---[512, 256, -320, -192]

Using TensorFlow backend.
---[512, 256, 320, 192]

Using TensorFlow backend.
---[512, 256, -320, -192]

Using TensorFlow backend.
---[512, 256, -320, -192]

Using TensorFlow backend.
---[512, 256, 320, 192]

Using TensorFlow backend.
---[512, 256, -320, -192]

Using TensorFlow backend.
---[512, 256, 320, 192]

Using TensorFlow backend.
---[512, 256, -320, -192]

Using TensorFlow backend.
---[512, 256, -320, -192]

Using TensorFlow backend.
---[512, 256, -320, -192]

Using TensorFlow backend.
---[512, 256, -320, -192]

Using TensorFlow backend.
---[-320, -192, -128, -64]

Using TensorFlow backend.
---[512, 256, -320, -192]

Using TensorFlow backend.
---[512, 256, 320, 192]

Using TensorFlow backend.
---[512, 256, -320, -192]

Using TensorFlow backend.
---[512, 256, -320, -192]

Using TensorFlow backend.
---[-320, -192, -128, -64]

Using TensorFlow backend.
---[512, 256, -320, -192]

Using TensorFlow backend.
---[512, 256, -320, -192]

Using TensorFlow backend.
---[512, 256, -320, -192]

Using TensorFlow backend.
---[512, 256, -320, -192]

Using TensorFlow backend.
---[512, 256, -320, -192]

Using TensorFlow backend.
---[-320, -192, 192, -128]

Using TensorFlow backend.
---[512, 256, -320, -192]

Using TensorFlow backend.
---[512, 256, -320, -192]

Using TensorFlow backend.
---[512, 256, -320, -192]

Using TensorFlow backend.
---[512, 256, -320, -192]

Using TensorFlow backend.
---[512, 256, -320, -192]

Using TensorFlow backend.
---[512, 256, -320, -192]

Using TensorFlow backend.
---[-320, -192, 192, -128]

Using TensorFlow backend.
---[512, 256, -320, -192]

Using TensorFlow backend.
---[512, 256, -320, -192]

Using TensorFlow backend.
---[512, 256, 320, 192]

Using TensorFlow backend.
---[512, 256, -320, -192]

Using TensorFlow backend.
---[512, 256, -320, -192]

Using TensorFlow backend.
---[512, 256, -320, -192]

Using TensorFlow backend.
---[512, 256, -320, -192]

Using TensorFlow backend.
---[512, 256, -320, -192]

Using TensorFlow backend.
---[512, 256, -192, 320]

Using TensorFlow backend.
---[512, 256, -320, -192]

Using TensorFlow backend.
---[512, 256, -320, -192]

Using TensorFlow backend.
---[-320, -192, -128, -64]

Using TensorFlow backend.
---[512, 256, -320, -192]

Using TensorFlow backend.
---[512, 256, -320, -192]

Using TensorFlow backend.
---[512, 256, -320, -192]

Using TensorFlow backend.
---[512, 256, -320, -192]

Using TensorFlow backend.
---[-320, -192, -128, -64]

Using TensorFlow backend.
---[512, 256, -320, -192]

Using TensorFlow backend.
---[256, -320, -192, 192]

Using TensorFlow backend.
---[512, 256, -320, -192]

Using TensorFlow backend.
---[-320, -192, -128, -64]

Using TensorFlow backend.
---[512, 256, -192, 320]

Using TensorFlow backend.
---[512, 256, -320, -192]

Using TensorFlow backend.
---[512, 256, -320, -192]

Using TensorFlow backend.
---[512, 256, -320, -192]

Using TensorFlow backend.
---[512, 256, -320, -192]

Using TensorFlow backend.
---[512, 256, -320, -192]

Using TensorFlow backend.
---[512, 256, -320, -192]

Using TensorFlow backend.
---[-320, -192, -128, -64]

Using TensorFlow backend.
---[512, 256, -320, -192]

Using TensorFlow backend.
---[512, 256, -192, 320]

Using TensorFlow backend.
---[-320, -192, -128, -64]

Using TensorFlow backend.
---[512, 256, -320, -192]

Using TensorFlow backend.
---[512, 256, -320, -192]

Using TensorFlow backend.
---[512, 256, -320, -192]

Using TensorFlow backend.
---[512, 256, -320, -192]

Using TensorFlow backend.
---[512, 256, -320, -192]

Using TensorFlow backend.
---[512, 256, -320, -192]

Finished CPU 0 instructions: 200000 cycles: 487310 cumulative IPC: 0.410416 (Simulation time: 2 hr 0 min 16 sec) 

ChampSim completed all CPUs

Region of Interest Statistics

CPU 0 cumulative IPC: 0.410416 instructions: 200000 cycles: 487310
L1D TOTAL     ACCESS:      79926  HIT:      77664  MISS:       2262
L1D LOAD      ACCESS:      54849  HIT:      52658  MISS:       2191
L1D RFO       ACCESS:      25077  HIT:      25006  MISS:         71
L1D PREFETCH  ACCESS:          0  HIT:          0  MISS:          0
L1D WRITEBACK ACCESS:          0  HIT:          0  MISS:          0
L1D PREFETCH  REQUESTED:          0  ISSUED:          0  USEFUL:          0  USELESS:          0
L1D AVERAGE MISS LATENCY: 107.679 cycles
L1I TOTAL     ACCESS:      39738  HIT:      39712  MISS:         26
L1I LOAD      ACCESS:      39738  HIT:      39712  MISS:         26
L1I RFO       ACCESS:          0  HIT:          0  MISS:          0
L1I PREFETCH  ACCESS:          0  HIT:          0  MISS:          0
L1I WRITEBACK ACCESS:          0  HIT:          0  MISS:          0
L1I PREFETCH  REQUESTED:          0  ISSUED:          0  USEFUL:          0  USELESS:          0
L1I AVERAGE MISS LATENCY: 107.308 cycles
L2C TOTAL     ACCESS:       2435  HIT:        676  MISS:       1759
L2C LOAD      ACCESS:       2217  HIT:        499  MISS:       1718
L2C RFO       ACCESS:         71  HIT:         30  MISS:         41
L2C PREFETCH  ACCESS:          0  HIT:          0  MISS:          0
L2C WRITEBACK ACCESS:        147  HIT:        147  MISS:          0
L2C PREFETCH  REQUESTED:          0  ISSUED:          0  USEFUL:          0  USELESS:          0
L2C AVERAGE MISS LATENCY: 120.317 cycles
LLC TOTAL     ACCESS:       6902  HIT:       3192  MISS:       3710
LLC LOAD      ACCESS:       1718  HIT:        775  MISS:        943
LLC RFO       ACCESS:         41  HIT:          6  MISS:         35
LLC PREFETCH  ACCESS:       5143  HIT:       2411  MISS:       2732
LLC WRITEBACK ACCESS:          0  HIT:          0  MISS:          0
LLC PREFETCH  REQUESTED:       5154  ISSUED:       5154  USEFUL:        781  USELESS:          0
LLC AVERAGE MISS LATENCY: 169.942 cycles
Major fault: 0 Minor fault: 109

DRAM Statistics
 CHANNEL 0
 RQ ROW_BUFFER_HIT:       1274  ROW_BUFFER_MISS:       2436
 DBUS_CONGESTED:        746
 WQ ROW_BUFFER_HIT:          0  ROW_BUFFER_MISS:          0  FULL:          0

 AVG_CONGESTED_CYCLE: 5

CPU 0 Branch Prediction Accuracy: 87.7791% MPKI: 29.1449 Average ROB Occupancy at Mispredict: 11.8372

Branch types
NOT_BRANCH: 151979 75.9895%
BRANCH_DIRECT_JUMP: 4592 2.296%
BRANCH_INDIRECT: 0 0%
BRANCH_CONDITIONAL: 30604 15.302%
BRANCH_DIRECT_CALL: 5881 2.9405%
BRANCH_INDIRECT_CALL: 368 0.184%
BRANCH_RETURN: 6252 3.126%
BRANCH_OTHER: 0 0%

